*SPEF "ieee 1481-1999"
*DESIGN "counter_dut"
*DATE "10:34:30 Wednesday December 04, 2024"
*VENDOR "The OpenROAD Project"
*PROGRAM "OpenROAD"
*VERSION "edf00dff99f6c40d67a30c0e22a8191c5d2ed9d6"
*DESIGN_FLOW "NAME_SCOPE LOCAL" "PIN_CAP NONE"
*DIVIDER /
*DELIMITER :
*BUS_DELIMITER []
*T_UNIT 1 NS
*C_UNIT 1 PF
*R_UNIT 1 OHM
*L_UNIT 1 HENRY

*NAME_MAP
*1 clk
*2 counter[0]
*3 counter[1]
*4 counter[2]
*5 counter[3]
*6 enable
*7 reset
*8 up_down
*11 _00_
*12 _01_
*13 _02_
*14 _03_
*15 _04_
*16 _05_
*17 _06_
*18 _07_
*19 _08_
*20 _09_
*21 _10_
*22 _11_
*23 _12_
*24 _13_
*25 _14_
*26 _15_
*27 _16_
*28 _17_
*29 _18_
*30 _19_
*31 _20_
*32 _21_
*33 _22_
*34 clknet_0_clk
*35 clknet_1_0__leaf_clk
*36 clknet_1_1__leaf_clk
*37 net1
*38 net2
*39 net3
*40 net4
*41 net5
*42 net6
*43 net7
*44 _23_
*45 _24_
*46 _25_
*47 _26_
*48 _27_
*49 _28_
*50 _29_
*51 _30_
*52 _31_
*53 _32_
*54 _33_
*55 _34_
*56 _35_
*57 _36_
*58 _37_
*59 _38_
*60 _39_
*61 _40_
*62 _41_
*63 _42_
*64 _43_
*65 _44_
*66 _45_
*67 _46_
*68 _47_
*69 _48_
*70 _49_
*71 clkbuf_0_clk
*72 clkbuf_1_0__f_clk
*73 clkbuf_1_1__f_clk
*74 input1
*75 input2
*76 input3
*77 output4
*78 output5
*79 output6
*80 output7

*PORTS
clk I
counter[0] O
counter[1] O
counter[2] O
counter[3] O
enable I
reset I
up_down I

*D_NET *1 0.00172563
*CONN
*P clk I
*I *71:A I *D sky130_fd_sc_hd__clkbuf_16
*CAP
1 clk 0.000737918
2 *71:A 0.000737918
3 *71:A *46:B 0.000127324
4 *71:A *54:A1 0
5 *71:A *74:A 5.63302e-05
6 *71:A *76:A 5.38666e-05
7 *71:A *15:35 1.22762e-05
*RES
1 clk *71:A 7.05403 
*END

*D_NET *2 0.000344826
*CONN
*P counter[0] O
*I *77:X O *D sky130_fd_sc_hd__buf_1
*CAP
1 counter[0] 0.000145477
2 *77:X 0.000145477
3 counter[0] counter[1] 5.3873e-05
*RES
1 *77:X counter[0] 5.18197 
*END

*D_NET *3 0.00045745
*CONN
*P counter[1] O
*I *78:X O *D sky130_fd_sc_hd__buf_1
*CAP
1 counter[1] 0.000173623
2 *78:X 0.000173623
3 counter[1] counter[2] 5.63302e-05
4 counter[1] *42:12 0
5 counter[0] counter[1] 5.3873e-05
*RES
1 *78:X counter[1] 6.20197 
*END

*D_NET *4 0.000478863
*CONN
*P counter[2] O
*I *79:X O *D sky130_fd_sc_hd__buf_1
*CAP
1 counter[2] 0.000211267
2 *79:X 0.000211267
3 counter[2] *40:29 0
4 counter[1] counter[2] 5.63302e-05
*RES
1 *79:X counter[2] 5.10177 
*END

*D_NET *5 0.000286796
*CONN
*P counter[3] O
*I *80:X O *D sky130_fd_sc_hd__buf_1
*CAP
1 counter[3] 0.000116465
2 *80:X 0.000116465
3 counter[3] *75:A 5.38666e-05
*RES
1 *80:X counter[3] 4.67197 
*END

*D_NET *6 0.000384367
*CONN
*P enable I
*I *74:A I *D sky130_fd_sc_hd__buf_1
*CAP
1 enable 0.000112232
2 *74:A 0.000112232
3 *74:A *70:CLK 4.97067e-05
4 *74:A *75:A 5.38666e-05
5 *71:A *74:A 5.63302e-05
*RES
1 enable *74:A 5.43697 
*END

*D_NET *7 0.000423577
*CONN
*P reset I
*I *75:A I *D sky130_fd_sc_hd__buf_1
*CAP
1 reset 0.000126351
2 *75:A 0.000126351
3 *75:A *70:CLK 6.31427e-05
4 counter[3] *75:A 5.38666e-05
5 *74:A *75:A 5.38666e-05
*RES
1 reset *75:A 5.69197 
*END

*D_NET *8 0.000457249
*CONN
*P up_down I
*I *76:A I *D sky130_fd_sc_hd__buf_1
*CAP
1 up_down 0.000201691
2 *76:A 0.000201691
3 *76:A *39:10 0
4 *71:A *76:A 5.38666e-05
*RES
1 up_down *76:A 6.20197 
*END

*D_NET *11 0.00051164
*CONN
*I *67:D I *D sky130_fd_sc_hd__dfxtp_1
*I *49:Y O *D sky130_fd_sc_hd__o21ai_1
*CAP
1 *67:D 0.000121512
2 *49:Y 0.000121512
3 *67:D *48:A1 9.03376e-05
4 *67:D *49:A2 0
5 *67:D *49:B1 1.99587e-05
6 *67:D *40:8 7.40446e-05
7 *67:D *40:19 8.42737e-05
*RES
1 *49:Y *67:D 10.3538 
*END

*D_NET *12 0.000676693
*CONN
*I *68:D I *D sky130_fd_sc_hd__dfxtp_1
*I *55:X O *D sky130_fd_sc_hd__a31o_1
*CAP
1 *68:D 0.000246006
2 *55:X 0.000246006
3 *68:D *55:A3 0.000184682
4 *68:D *63:A_N 0
5 *68:D *39:10 0
6 *68:D *39:14 0
*RES
1 *55:X *68:D 12.3938 
*END

*D_NET *13 0.000512876
*CONN
*I *69:D I *D sky130_fd_sc_hd__dfxtp_1
*I *61:Y O *D sky130_fd_sc_hd__o21ai_1
*CAP
1 *69:D 0.000141166
2 *61:Y 0.000141166
3 *69:D *49:A2 0
4 *69:D *49:B1 0
5 *69:D *61:A1 9.77541e-05
6 *69:D *62:A2 3.03843e-05
7 *69:D *72:A 8.40213e-05
8 *69:D *17:38 0
9 *69:D *34:8 1.83847e-05
*RES
1 *61:Y *69:D 6.365 
*END

*D_NET *14 0.000648102
*CONN
*I *70:D I *D sky130_fd_sc_hd__dfxtp_1
*I *66:X O *D sky130_fd_sc_hd__a31o_1
*CAP
1 *70:D 0.000275108
2 *66:X 0.000275108
3 *70:D *47:B 0
4 *70:D *54:B1 3.82323e-06
5 *70:D *66:A2 3.39988e-05
6 *70:D *66:B1 4.01778e-05
7 *70:D *80:A 0
8 *70:D *18:18 1.98869e-05
9 *70:D *31:12 0
10 *70:D *43:29 0
*RES
1 *66:X *70:D 8.18375 
*END

*D_NET *15 0.00244971
*CONN
*I *46:A I *D sky130_fd_sc_hd__nor2_1
*I *45:B I *D sky130_fd_sc_hd__nand2_1
*I *66:A1 I *D sky130_fd_sc_hd__a31o_1
*I *55:A2 I *D sky130_fd_sc_hd__a31o_1
*I *44:Y O *D sky130_fd_sc_hd__inv_2
*CAP
1 *46:A 0
2 *45:B 3.75636e-05
3 *66:A1 0
4 *55:A2 0
5 *44:Y 0.000121483
6 *15:35 0.000364254
7 *15:19 0.000359149
8 *15:12 0.000153942
9 *45:B *66:A3 6.75419e-05
10 *45:B *66:B1 2.73147e-05
11 *15:12 *55:A3 9.50342e-06
12 *15:12 *64:A2 0.000142294
13 *15:12 *70:CLK 0
14 *15:12 *31:12 0.000296656
15 *15:12 *37:8 1.90051e-05
16 *15:12 *37:14 6.89704e-05
17 *15:12 *37:32 9.18292e-06
18 *15:19 *55:B1 8.8266e-05
19 *15:19 *63:B 8.82557e-05
20 *15:19 *37:32 4.66108e-05
21 *15:19 *37:45 1.46828e-05
22 *15:35 *45:A 0
23 *15:35 *46:B 0
24 *15:35 *54:A1 0.000101884
25 *15:35 *55:B1 2.30292e-05
26 *15:35 *63:B 4.82863e-05
27 *15:35 *64:A2 6.88195e-05
28 *15:35 *65:C 9.23395e-05
29 *15:35 *66:A2 0
30 *15:35 *66:A3 3.47018e-05
31 *15:35 *66:B1 6.03947e-06
32 *15:35 *18:18 1.93834e-05
33 *15:35 *18:24 7.06865e-05
34 *15:35 *37:45 5.75866e-05
35 *71:A *15:35 1.22762e-05
*RES
1 *44:Y *15:12 9.755 
2 *15:12 *55:A2 1.6 
3 *15:12 *15:19 1.485 
4 *15:19 *15:35 11.8038 
5 *15:35 *66:A1 1.6 
6 *15:35 *45:B 2.73625 
7 *15:19 *46:A 1.6 
*END

*D_NET *16 0.00197186
*CONN
*I *49:A2 I *D sky130_fd_sc_hd__o21ai_1
*I *61:A1 I *D sky130_fd_sc_hd__o21ai_1
*I *45:Y O *D sky130_fd_sc_hd__nand2_1
*CAP
1 *49:A2 0.000100324
2 *61:A1 9.37724e-05
3 *45:Y 0.000355195
4 *16:10 0.000549291
5 *49:A2 *49:A1 4.60584e-05
6 *49:A2 *49:B1 0.000108758
7 *49:A2 *40:8 0
8 *61:A1 *49:B1 1.70935e-05
9 *61:A1 *60:A1 0
10 *61:A1 *62:A2 3.15839e-05
11 *61:A1 *69:CLK 0.00019012
12 *61:A1 *40:19 5.98004e-06
13 *61:A1 *40:21 6.01535e-05
14 *16:10 *45:A 0
15 *16:10 *48:A1 0
16 *16:10 *49:B1 5.55344e-05
17 *16:10 *66:A3 9.76295e-06
18 *16:10 *69:CLK 0.000125217
19 *16:10 *73:A 1.01661e-05
20 *16:10 *36:10 7.73721e-05
21 *16:10 *40:19 3.77199e-05
22 *67:D *49:A2 0
23 *69:D *49:A2 0
24 *69:D *61:A1 9.77541e-05
*RES
1 *45:Y *16:10 11.25 
2 *16:10 *61:A1 6.9 
3 *16:10 *49:A2 5.775 
*END

*D_NET *17 0.00342277
*CONN
*I *48:B1 I *D sky130_fd_sc_hd__a21oi_1
*I *60:B1 I *D sky130_fd_sc_hd__a21oi_1
*I *66:B1 I *D sky130_fd_sc_hd__a31o_1
*I *54:B1 I *D sky130_fd_sc_hd__a21o_1
*I *46:Y O *D sky130_fd_sc_hd__nor2_1
*CAP
1 *48:B1 8.29698e-05
2 *60:B1 0.000121549
3 *66:B1 0.000247963
4 *54:B1 7.22438e-05
5 *46:Y 0
6 *17:38 0.000377194
7 *17:10 0.000438735
8 *17:4 0.000291204
9 *48:B1 *45:A 0
10 *48:B1 *48:A1 4.66108e-05
11 *48:B1 *49:B1 3.64998e-06
12 *48:B1 *73:A 0.000144655
13 *48:B1 *37:45 0
14 *54:B1 *65:B 0
15 *54:B1 *65:D 2.30292e-05
16 *54:B1 *66:A2 8.40213e-05
17 *54:B1 *18:18 0.000120655
18 *60:B1 *60:A2 0
19 *60:B1 *61:B1 3.00381e-05
20 *60:B1 *62:A2 1.82667e-05
21 *60:B1 *69:CLK 7.21296e-06
22 *60:B1 *72:A 0.000184392
23 *60:B1 *73:A 0.000113732
24 *66:B1 *64:B1 0
25 *66:B1 *65:B 0.00010663
26 *66:B1 *66:A2 6.97202e-05
27 *66:B1 *66:A3 7.67415e-06
28 *66:B1 *43:29 0
29 *17:10 *55:B1 4.39734e-05
30 *17:10 *64:A2 7.00642e-05
31 *17:10 *64:B1 0
32 *17:10 *65:B 3.19349e-05
33 *17:10 *65:D 1.35862e-05
34 *17:10 *18:24 0
35 *17:10 *37:45 0.000124007
36 *17:38 *48:A1 0
37 *17:38 *48:A2 4.29107e-05
38 *17:38 *65:B 1.33293e-05
39 *17:38 *65:D 1.0124e-05
40 *17:38 *72:A 0
41 *17:38 *18:24 7.05462e-05
42 *17:38 *37:45 0.00033279
43 *45:B *66:B1 2.73147e-05
44 *69:D *17:38 0
45 *70:D *54:B1 3.82323e-06
46 *70:D *66:B1 4.01778e-05
47 *15:35 *66:B1 6.03947e-06
*RES
1 *46:Y *17:4 1.6 
2 *17:4 *17:10 5.03 
3 *17:10 *54:B1 5.445 
4 *17:10 *66:B1 8.97 
5 *17:4 *17:38 6.59 
6 *17:38 *60:B1 7.05 
7 *17:38 *48:B1 5.685 
*END

*D_NET *18 0.00243587
*CONN
*I *54:A2 I *D sky130_fd_sc_hd__a21o_1
*I *48:A2 I *D sky130_fd_sc_hd__a21oi_1
*I *60:A2 I *D sky130_fd_sc_hd__a21oi_1
*I *47:Y O *D sky130_fd_sc_hd__nor2_1
*CAP
1 *54:A2 1.65033e-05
2 *48:A2 0.000104825
3 *60:A2 0.000125307
4 *47:Y 0.000214943
5 *18:24 0.000336991
6 *18:18 0.000338306
7 *48:A2 *65:B 0
8 *48:A2 *66:A3 5.36384e-06
9 *54:A2 *54:A1 2.49909e-05
10 *54:A2 *65:D 4.66108e-05
11 *60:A2 *54:A1 0.000130873
12 *60:A2 *62:B1 9.50342e-06
13 *60:A2 *65:C 7.79678e-05
14 *60:A2 *37:45 9.61344e-05
15 *18:18 *47:A 5.53774e-05
16 *18:18 *64:A1 4.93698e-05
17 *18:18 *65:B 7.23343e-05
18 *18:18 *65:D 0.000159747
19 *18:18 *31:12 5.13716e-05
20 *18:24 *55:B1 0
21 *18:24 *65:B 0.000175281
22 *54:B1 *18:18 0.000120655
23 *60:B1 *60:A2 0
24 *70:D *18:18 1.98869e-05
25 *15:35 *18:18 1.93834e-05
26 *15:35 *18:24 7.06865e-05
27 *17:10 *18:24 0
28 *17:38 *48:A2 4.29107e-05
29 *17:38 *18:24 7.05462e-05
*RES
1 *47:Y *18:18 9.225 
2 *18:18 *18:24 4.7 
3 *18:24 *60:A2 9.02 
4 *18:24 *48:A2 3.61 
5 *18:18 *54:A2 4.05 
*END

*D_NET *19 0.000716822
*CONN
*I *49:B1 I *D sky130_fd_sc_hd__o21ai_1
*I *48:Y O *D sky130_fd_sc_hd__a21oi_1
*CAP
1 *49:B1 0.000153567
2 *48:Y 0.000153567
3 *49:B1 *48:A1 3.71872e-05
4 *49:B1 *49:A1 4.82919e-05
5 *49:B1 *34:8 0
6 *49:B1 *40:19 0.000119214
7 *48:B1 *49:B1 3.64998e-06
8 *49:A2 *49:B1 0.000108758
9 *61:A1 *49:B1 1.70935e-05
10 *67:D *49:B1 1.99587e-05
11 *69:D *49:B1 0
12 *16:10 *49:B1 5.55344e-05
*RES
1 *48:Y *49:B1 11.205 
*END

*D_NET *20 0.000597223
*CONN
*I *52:B I *D sky130_fd_sc_hd__nand2_1
*I *51:B I *D sky130_fd_sc_hd__or2_1
*I *50:X O *D sky130_fd_sc_hd__xor2_1
*CAP
1 *52:B 0
2 *51:B 5.76207e-05
3 *50:X 7.96229e-05
4 *20:10 0.000137244
5 *51:B *52:A 8.08518e-05
6 *51:B *53:A 5.63405e-05
7 *20:10 *50:A 4.85494e-05
8 *20:10 *50:B 2.50702e-05
9 *20:10 *53:B 5.33052e-05
10 *20:10 *55:A3 4.82863e-05
11 *20:10 *58:B 0
12 *20:10 *41:23 1.03323e-05
*RES
1 *50:X *20:10 4.06 
2 *20:10 *51:B 7.235 
3 *20:10 *52:B 1.6 
*END

*D_NET *21 0.00104389
*CONN
*I *59:A I *D sky130_fd_sc_hd__xnor2_1
*I *53:A I *D sky130_fd_sc_hd__nand2_1
*I *51:X O *D sky130_fd_sc_hd__or2_1
*CAP
1 *59:A 6.34328e-05
2 *53:A 0.00019253
3 *51:X 0
4 *21:4 0.000255963
5 *53:A *50:B 0.000118741
6 *53:A *55:A3 0
7 *53:A *62:A2 0
8 *53:A *63:B 0
9 *53:A *39:14 0
10 *53:A *39:31 0
11 *53:A *41:23 0.000114433
12 *59:A *62:A2 0
13 *59:A *41:23 1.46744e-05
14 *59:A *41:42 6.97118e-05
15 *59:A *42:24 0.000158066
16 *51:B *53:A 5.63405e-05
*RES
1 *51:X *21:4 1.6 
2 *21:4 *53:A 10.01 
3 *21:4 *59:A 3.43 
*END

*D_NET *22 0.000205377
*CONN
*I *53:B I *D sky130_fd_sc_hd__nand2_1
*I *52:Y O *D sky130_fd_sc_hd__nand2_1
*CAP
1 *53:B 3.19029e-05
2 *52:Y 3.19029e-05
3 *53:B *50:A 8.8266e-05
4 *53:B *41:23 0
5 *20:10 *53:B 5.33052e-05
*RES
1 *52:Y *53:B 4.355 
*END

*D_NET *23 0.00101154
*CONN
*I *55:A3 I *D sky130_fd_sc_hd__a31o_1
*I *53:Y O *D sky130_fd_sc_hd__nand2_1
*CAP
1 *55:A3 0.000292447
2 *53:Y 0.000292447
3 *55:A3 *50:A 9.27255e-06
4 *55:A3 *50:B 0.000110367
5 *55:A3 *63:A_N 0
6 *55:A3 *63:B 0
7 *55:A3 *64:A2 6.45317e-05
8 *55:A3 *39:10 0
9 *55:A3 *39:31 0
10 *53:A *55:A3 0
11 *68:D *55:A3 0.000184682
12 *15:12 *55:A3 9.50342e-06
13 *20:10 *55:A3 4.82863e-05
*RES
1 *53:Y *55:A3 14.145 
*END

*D_NET *24 0.000459434
*CONN
*I *55:B1 I *D sky130_fd_sc_hd__a31o_1
*I *54:X O *D sky130_fd_sc_hd__a21o_1
*CAP
1 *55:B1 8.96354e-05
2 *54:X 8.96354e-05
3 *55:B1 *64:A2 0
4 *55:B1 *37:45 0.000124895
5 *15:19 *55:B1 8.8266e-05
6 *15:35 *55:B1 2.30292e-05
7 *17:10 *55:B1 4.39734e-05
8 *18:24 *55:B1 0
*RES
1 *54:X *55:B1 9.72 
*END

*D_NET *25 0.000441043
*CONN
*I *58:A I *D sky130_fd_sc_hd__nand2_1
*I *56:X O *D sky130_fd_sc_hd__a21o_1
*CAP
1 *58:A 0.000132255
2 *56:X 0.000132255
3 *58:A *58:B 0
4 *58:A *40:29 8.8266e-05
5 *58:A *42:24 8.8266e-05
*RES
1 *56:X *58:A 6.17 
*END

*D_NET *26 0.000926158
*CONN
*I *62:B1 I *D sky130_fd_sc_hd__o31ai_1
*I *58:B I *D sky130_fd_sc_hd__nand2_1
*I *57:Y O *D sky130_fd_sc_hd__nand3_1
*CAP
1 *62:B1 0.000167577
2 *58:B 7.08359e-05
3 *57:Y 0
4 *26:4 0.000238413
5 *58:B *50:A 1.12578e-05
6 *58:B *57:A 5.4155e-06
7 *58:B *57:B 1.16578e-05
8 *58:B *40:29 5.30673e-05
9 *58:B *42:24 1.67266e-05
10 *62:B1 *54:A1 7.23602e-05
11 *62:B1 *57:B 7.70758e-05
12 *62:B1 *59:B 0
13 *62:B1 *61:A2 0
14 *62:B1 *41:36 9.37731e-05
15 *62:B1 *41:60 9.84957e-05
16 *58:A *58:B 0
17 *60:A2 *62:B1 9.50342e-06
18 *20:10 *58:B 0
*RES
1 *57:Y *26:4 1.6 
2 *26:4 *58:B 3.46 
3 *26:4 *62:B1 9.275 
*END

*D_NET *27 0.000329335
*CONN
*I *59:B I *D sky130_fd_sc_hd__xnor2_1
*I *58:Y O *D sky130_fd_sc_hd__nand2_1
*CAP
1 *59:B 0.000126767
2 *58:Y 0.000126767
3 *59:B *40:23 0
4 *59:B *40:29 0
5 *59:B *41:42 4.82863e-05
6 *59:B *42:24 2.75145e-05
7 *62:B1 *59:B 0
*RES
1 *58:Y *59:B 9.285 
*END

*D_NET *28 0.000262041
*CONN
*I *61:A2 I *D sky130_fd_sc_hd__o21ai_1
*I *59:Y O *D sky130_fd_sc_hd__xnor2_1
*CAP
1 *61:A2 7.11671e-05
2 *59:Y 7.11671e-05
3 *61:A2 *62:A2 3.14407e-05
4 *61:A2 *40:23 0
5 *61:A2 *41:42 8.8266e-05
6 *62:B1 *61:A2 0
*RES
1 *59:Y *61:A2 8.865 
*END

*D_NET *29 0.000142819
*CONN
*I *61:B1 I *D sky130_fd_sc_hd__o21ai_1
*I *60:Y O *D sky130_fd_sc_hd__a21oi_1
*CAP
1 *61:B1 2.19317e-05
2 *60:Y 2.19317e-05
3 *61:B1 *60:A1 4.00541e-06
4 *61:B1 *62:A2 6.49117e-05
5 *60:B1 *61:B1 3.00381e-05
*RES
1 *60:Y *61:B1 4.01 
*END

*D_NET *30 0.00197543
*CONN
*I *65:C I *D sky130_fd_sc_hd__nand4_1
*I *64:A2 I *D sky130_fd_sc_hd__a31o_1
*I *62:Y O *D sky130_fd_sc_hd__o31ai_1
*CAP
1 *65:C 9.09261e-05
2 *64:A2 0.000268846
3 *62:Y 0
4 *30:4 0.000359772
5 *64:A2 *46:B 0
6 *64:A2 *63:B 6.42013e-05
7 *64:A2 *72:A 0.000197264
8 *64:A2 *37:14 1.44259e-05
9 *64:A2 *37:45 0
10 *64:A2 *39:14 0.000115762
11 *64:A2 *39:27 2.0514e-05
12 *65:C *54:A1 0.000327698
13 *55:A3 *64:A2 6.45317e-05
14 *55:B1 *64:A2 0
15 *60:A2 *65:C 7.79678e-05
16 *15:12 *64:A2 0.000142294
17 *15:35 *64:A2 6.88195e-05
18 *15:35 *65:C 9.23395e-05
19 *17:10 *64:A2 7.00642e-05
*RES
1 *62:Y *30:4 1.6 
2 *30:4 *64:A2 12.92 
3 *30:4 *65:C 9.275 
*END

*D_NET *31 0.00172237
*CONN
*I *65:D I *D sky130_fd_sc_hd__nand4_1
*I *64:A3 I *D sky130_fd_sc_hd__a31o_1
*I *63:Y O *D sky130_fd_sc_hd__nand2b_1
*CAP
1 *65:D 0.000137514
2 *64:A3 0
3 *63:Y 0.000197375
4 *31:12 0.000334889
5 *65:D *54:A1 1.47347e-05
6 *65:D *65:B 0.000138329
7 *65:D *66:A2 0
8 *65:D *37:45 0
9 *31:12 *47:A 2.16833e-05
10 *31:12 *47:B 6.90876e-05
11 *31:12 *64:A1 8.65961e-05
12 *31:12 *37:8 7.60965e-05
13 *31:12 *37:45 5.36384e-06
14 *31:12 *38:8 3.95724e-05
15 *54:A2 *65:D 4.66108e-05
16 *54:B1 *65:D 2.30292e-05
17 *70:D *31:12 0
18 *15:12 *31:12 0.000296656
19 *17:10 *65:D 1.35862e-05
20 *17:38 *65:D 1.0124e-05
21 *18:18 *65:D 0.000159747
22 *18:18 *31:12 5.13716e-05
*RES
1 *63:Y *31:12 8.125 
2 *31:12 *64:A3 1.6 
3 *31:12 *65:D 5.17 
*END

*D_NET *32 0.00063527
*CONN
*I *66:A2 I *D sky130_fd_sc_hd__a31o_1
*I *64:X O *D sky130_fd_sc_hd__a31o_1
*CAP
1 *66:A2 0.000135623
2 *64:X 0.000135623
3 *66:A2 *65:B 0.000120888
4 *66:A2 *66:A3 5.53961e-05
5 *54:B1 *66:A2 8.40213e-05
6 *65:D *66:A2 0
7 *66:B1 *66:A2 6.97202e-05
8 *70:D *66:A2 3.39988e-05
9 *15:35 *66:A2 0
*RES
1 *64:X *66:A2 10.515 
*END

*D_NET *33 0.000700254
*CONN
*I *66:A3 I *D sky130_fd_sc_hd__a31o_1
*I *65:Y O *D sky130_fd_sc_hd__nand4_1
*CAP
1 *66:A3 0.00022964
2 *65:Y 0.00022964
3 *66:A3 *54:A1 4.65607e-05
4 *66:A3 *65:B 1.39724e-05
5 *45:B *66:A3 6.75419e-05
6 *48:A2 *66:A3 5.36384e-06
7 *66:A2 *66:A3 5.53961e-05
8 *66:B1 *66:A3 7.67415e-06
9 *15:35 *66:A3 3.47018e-05
10 *16:10 *66:A3 9.76295e-06
*RES
1 *65:Y *66:A3 12.255 
*END

*D_NET *34 0.00198343
*CONN
*I *73:A I *D sky130_fd_sc_hd__clkbuf_16
*I *72:A I *D sky130_fd_sc_hd__clkbuf_16
*I *71:X O *D sky130_fd_sc_hd__clkbuf_16
*CAP
1 *73:A 0.000114458
2 *72:A 0.000180195
3 *71:X 2.35467e-05
4 *34:8 0.0003182
5 *72:A *54:A1 0
6 *72:A *60:A1 8.88715e-05
7 *72:A *62:A2 4.16388e-05
8 *72:A *63:B 6.52265e-05
9 *72:A *69:CLK 5.28781e-05
10 *72:A *37:45 0
11 *72:A *39:27 4.82863e-05
12 *73:A *45:A 0
13 *73:A *69:CLK 0.000185164
14 *73:A *36:10 0.00011235
15 *48:B1 *73:A 0.000144655
16 *49:B1 *34:8 0
17 *60:B1 *72:A 0.000184392
18 *60:B1 *73:A 0.000113732
19 *64:A2 *72:A 0.000197264
20 *69:D *72:A 8.40213e-05
21 *69:D *34:8 1.83847e-05
22 *16:10 *73:A 1.01661e-05
23 *17:38 *72:A 0
*RES
1 *71:X *34:8 4.05 
2 *34:8 *72:A 9.315 
3 *34:8 *73:A 8.04 
*END

*D_NET *35 0.00110274
*CONN
*I *70:CLK I *D sky130_fd_sc_hd__dfxtp_1
*I *68:CLK I *D sky130_fd_sc_hd__dfxtp_1
*I *72:X O *D sky130_fd_sc_hd__clkbuf_16
*CAP
1 *70:CLK 0.000310401
2 *68:CLK 8.10904e-05
3 *72:X 0
4 *35:6 0.000391491
5 *68:CLK *39:10 0.000111351
6 *70:CLK *63:A_N 9.09986e-05
7 *70:CLK *64:B1 0
8 *70:CLK *37:14 0
9 *70:CLK *39:10 4.55864e-06
10 *74:A *70:CLK 4.97067e-05
11 *75:A *70:CLK 6.31427e-05
12 *15:12 *70:CLK 0
*RES
1 *72:X *35:6 3.6 
2 *35:6 *68:CLK 5.745 
3 *35:6 *70:CLK 9.57 
*END

*D_NET *36 0.00166799
*CONN
*I *67:CLK I *D sky130_fd_sc_hd__dfxtp_1
*I *69:CLK I *D sky130_fd_sc_hd__dfxtp_1
*I *73:X O *D sky130_fd_sc_hd__clkbuf_16
*CAP
1 *67:CLK 0
2 *69:CLK 0.000137063
3 *73:X 0.000237856
4 *36:10 0.000374919
5 *69:CLK *40:21 0
6 *36:10 *48:A1 6.01338e-05
7 *36:10 *40:8 0.000107704
8 *60:B1 *69:CLK 7.21296e-06
9 *61:A1 *69:CLK 0.00019012
10 *72:A *69:CLK 5.28781e-05
11 *73:A *69:CLK 0.000185164
12 *73:A *36:10 0.00011235
13 *16:10 *69:CLK 0.000125217
14 *16:10 *36:10 7.73721e-05
*RES
1 *73:X *36:10 9.57 
2 *36:10 *69:CLK 8.34 
3 *36:10 *67:CLK 3.6 
*END

*D_NET *37 0.002944
*CONN
*I *45:A I *D sky130_fd_sc_hd__nand2_1
*I *65:A I *D sky130_fd_sc_hd__nand4_1
*I *55:A1 I *D sky130_fd_sc_hd__a31o_1
*I *64:A1 I *D sky130_fd_sc_hd__a31o_1
*I *47:A I *D sky130_fd_sc_hd__nor2_1
*I *74:X O *D sky130_fd_sc_hd__buf_1
*CAP
1 *45:A 0.000135898
2 *65:A 0
3 *55:A1 0
4 *64:A1 1.53669e-05
5 *47:A 2.7212e-05
6 *74:X 0.00012862
7 *37:45 0.000386057
8 *37:32 0.000302053
9 *37:14 0.000127319
10 *37:8 0.000265255
11 *45:A *54:A1 4.70262e-05
12 *37:8 *63:B 0.000177365
13 *37:8 *38:8 0
14 *37:8 *39:14 0
15 *37:32 *63:B 2.32597e-05
16 *37:45 *54:A1 0.000105788
17 *48:B1 *45:A 0
18 *48:B1 *37:45 0
19 *55:B1 *37:45 0.000124895
20 *60:A2 *37:45 9.61344e-05
21 *64:A2 *37:14 1.44259e-05
22 *64:A2 *37:45 0
23 *65:D *37:45 0
24 *70:CLK *37:14 0
25 *72:A *37:45 0
26 *73:A *45:A 0
27 *15:12 *37:8 1.90051e-05
28 *15:12 *37:14 6.89704e-05
29 *15:12 *37:32 9.18292e-06
30 *15:19 *37:32 4.66108e-05
31 *15:19 *37:45 1.46828e-05
32 *15:35 *45:A 0
33 *15:35 *37:45 5.75866e-05
34 *16:10 *45:A 0
35 *17:10 *37:45 0.000124007
36 *17:38 *37:45 0.00033279
37 *18:18 *47:A 5.53774e-05
38 *18:18 *64:A1 4.93698e-05
39 *31:12 *47:A 2.16833e-05
40 *31:12 *64:A1 8.65961e-05
41 *31:12 *37:8 7.60965e-05
42 *31:12 *37:45 5.36384e-06
*RES
1 *74:X *37:8 4.825 
2 *37:8 *37:14 5.89 
3 *37:14 *47:A 2.41 
4 *37:14 *64:A1 2.395 
5 *37:8 *37:32 1.14 
6 *37:32 *55:A1 1.6 
7 *37:32 *37:45 8.93 
8 *37:45 *65:A 3.6 
9 *37:45 *45:A 5.745 
*END

*D_NET *38 0.000343429
*CONN
*I *47:B I *D sky130_fd_sc_hd__nor2_1
*I *44:A I *D sky130_fd_sc_hd__inv_2
*I *75:X O *D sky130_fd_sc_hd__buf_1
*CAP
1 *47:B 4.23748e-05
2 *44:A 0
3 *75:X 7.50097e-05
4 *38:8 0.000117385
5 *70:D *47:B 0
6 *31:12 *47:B 6.90876e-05
7 *31:12 *38:8 3.95724e-05
8 *37:8 *38:8 0
*RES
1 *75:X *38:8 3.01 
2 *38:8 *44:A 1.6 
3 *38:8 *47:B 2.74 
*END

*D_NET *39 0.00263145
*CONN
*I *63:A_N I *D sky130_fd_sc_hd__nand2b_1
*I *62:A1 I *D sky130_fd_sc_hd__o31ai_1
*I *51:A I *D sky130_fd_sc_hd__or2_1
*I *52:A I *D sky130_fd_sc_hd__nand2_1
*I *46:B I *D sky130_fd_sc_hd__nor2_1
*I *76:X O *D sky130_fd_sc_hd__buf_1
*CAP
1 *63:A_N 7.53275e-05
2 *62:A1 0
3 *51:A 0
4 *52:A 4.56911e-05
5 *46:B 7.97174e-05
6 *76:X 0.000222982
7 *39:31 0.000156487
8 *39:27 0.000127999
9 *39:14 0.000360054
10 *39:10 0.000561444
11 *46:B *63:B 0.000116277
12 *52:A *57:B 0
13 *52:A *57:C 5.2072e-05
14 *39:14 *63:B 6.15763e-05
15 *39:27 *63:B 7.49327e-05
16 *39:31 *57:C 4.18603e-06
17 *39:31 *63:B 6.58955e-06
18 *39:31 *42:37 8.64657e-05
19 *51:B *52:A 8.08518e-05
20 *53:A *39:14 0
21 *53:A *39:31 0
22 *55:A3 *63:A_N 0
23 *55:A3 *39:10 0
24 *55:A3 *39:31 0
25 *64:A2 *46:B 0
26 *64:A2 *39:14 0.000115762
27 *64:A2 *39:27 2.0514e-05
28 *68:CLK *39:10 0.000111351
29 *68:D *63:A_N 0
30 *68:D *39:10 0
31 *68:D *39:14 0
32 *70:CLK *63:A_N 9.09986e-05
33 *70:CLK *39:10 4.55864e-06
34 *71:A *46:B 0.000127324
35 *72:A *39:27 4.82863e-05
36 *76:A *39:10 0
37 *15:35 *46:B 0
38 *37:8 *39:14 0
*RES
1 *76:X *39:10 8.07 
2 *39:10 *39:14 6.935 
3 *39:14 *46:B 7.49 
4 *39:14 *39:27 0.795 
5 *39:27 *39:31 4.655 
6 *39:31 *52:A 5.235 
7 *39:31 *51:A 3.6 
8 *39:27 *62:A1 1.6 
9 *39:10 *63:A_N 5.49 
*END

*D_NET *40 0.00506267
*CONN
*I *77:A I *D sky130_fd_sc_hd__buf_1
*I *49:A1 I *D sky130_fd_sc_hd__o21ai_1
*I *62:A2 I *D sky130_fd_sc_hd__o31ai_1
*I *56:A1 I *D sky130_fd_sc_hd__a21o_1
*I *57:A I *D sky130_fd_sc_hd__nand3_1
*I *50:A I *D sky130_fd_sc_hd__xor2_1
*I *48:A1 I *D sky130_fd_sc_hd__a21oi_1
*I *67:Q O *D sky130_fd_sc_hd__dfxtp_1
*CAP
1 *77:A 4.37879e-05
2 *49:A1 6.42997e-05
3 *62:A2 0.000219041
4 *56:A1 0
5 *57:A 1.88809e-05
6 *50:A 0.000307872
7 *48:A1 0.000123587
8 *67:Q 1.85694e-05
9 *40:29 0.000677455
10 *40:23 0.00046891
11 *40:21 0.000466616
12 *40:19 0.000277323
13 *40:8 0.000343803
14 *40:6 0.000198919
15 *50:A *50:B 8.8266e-05
16 *50:A *57:B 3.00381e-05
17 *50:A *41:23 0
18 *62:A2 *60:A1 0.00014719
19 *62:A2 *62:A3 4.66108e-05
20 *62:A2 *63:B 6.74384e-05
21 *62:A2 *41:42 0.000114029
22 *40:23 *42:12 0
23 *40:29 *42:12 0
24 *40:29 *42:20 0
25 *40:29 *42:24 0
26 counter[2] *40:29 0
27 *48:B1 *48:A1 4.66108e-05
28 *49:A2 *49:A1 4.60584e-05
29 *49:A2 *40:8 0
30 *49:B1 *48:A1 3.71872e-05
31 *49:B1 *49:A1 4.82919e-05
32 *49:B1 *40:19 0.000119214
33 *53:A *62:A2 0
34 *53:B *50:A 8.8266e-05
35 *55:A3 *50:A 9.27255e-06
36 *58:A *40:29 8.8266e-05
37 *58:B *50:A 1.12578e-05
38 *58:B *57:A 5.4155e-06
39 *58:B *40:29 5.30673e-05
40 *59:A *62:A2 0
41 *59:B *40:23 0
42 *59:B *40:29 0
43 *60:B1 *62:A2 1.82667e-05
44 *61:A1 *62:A2 3.15839e-05
45 *61:A1 *40:19 5.98004e-06
46 *61:A1 *40:21 6.01535e-05
47 *61:A2 *62:A2 3.14407e-05
48 *61:A2 *40:23 0
49 *61:B1 *62:A2 6.49117e-05
50 *67:D *48:A1 9.03376e-05
51 *67:D *40:8 7.40446e-05
52 *67:D *40:19 8.42737e-05
53 *69:CLK *40:21 0
54 *69:D *62:A2 3.03843e-05
55 *72:A *62:A2 4.16388e-05
56 *16:10 *48:A1 0
57 *16:10 *40:19 3.77199e-05
58 *17:38 *48:A1 0
59 *20:10 *50:A 4.85494e-05
60 *36:10 *48:A1 6.01338e-05
61 *36:10 *40:8 0.000107704
*RES
1 *67:Q *40:6 1.96 
2 *40:6 *40:8 3.555 
3 *40:8 *48:A1 4.465 
4 *40:8 *40:19 4.655 
5 *40:19 *40:21 2.655 
6 *40:21 *40:23 1.635 
7 *40:23 *40:29 8.39 
8 *40:29 *50:A 8.2 
9 *40:29 *57:A 1.96 
10 *40:23 *56:A1 3.6 
11 *40:21 *62:A2 10.7925 
12 *40:19 *49:A1 5.085 
13 *40:6 *77:A 2.41 
*END

*D_NET *41 0.00500299
*CONN
*I *54:A1 I *D sky130_fd_sc_hd__a21o_1
*I *62:A3 I *D sky130_fd_sc_hd__o31ai_1
*I *78:A I *D sky130_fd_sc_hd__buf_1
*I *56:A2 I *D sky130_fd_sc_hd__a21o_1
*I *57:B I *D sky130_fd_sc_hd__nand3_1
*I *50:B I *D sky130_fd_sc_hd__xor2_1
*I *68:Q O *D sky130_fd_sc_hd__dfxtp_1
*CAP
1 *54:A1 0.0003489
2 *62:A3 2.18552e-05
3 *78:A 0.000171447
4 *56:A2 1.90984e-05
5 *57:B 6.37618e-05
6 *50:B 0.000147631
7 *68:Q 0
8 *41:60 0.000389719
9 *41:42 0.00037361
10 *41:36 0.000230591
11 *41:23 0.000194494
12 *41:4 0.0002498
13 *54:A1 *65:B 1.03323e-05
14 *54:A1 *42:37 4.14369e-05
15 *56:A2 *56:B1 4.00541e-06
16 *56:A2 *42:20 0
17 *57:B *57:C 0.000100156
18 *57:B *42:24 0
19 *78:A *42:12 1.54878e-05
20 *78:A *42:20 0.000188757
21 *41:23 *42:24 4.66108e-05
22 *41:36 *57:C 2.07184e-05
23 *41:36 *42:37 7.47215e-05
24 *41:42 *42:20 4.43682e-05
25 *41:42 *42:24 0.000123091
26 *41:60 *42:37 9.06521e-05
27 *45:A *54:A1 4.70262e-05
28 *50:A *50:B 8.8266e-05
29 *50:A *57:B 3.00381e-05
30 *50:A *41:23 0
31 *52:A *57:B 0
32 *53:A *50:B 0.000118741
33 *53:A *41:23 0.000114433
34 *53:B *41:23 0
35 *54:A2 *54:A1 2.49909e-05
36 *55:A3 *50:B 0.000110367
37 *58:B *57:B 1.16578e-05
38 *59:A *41:23 1.46744e-05
39 *59:A *41:42 6.97118e-05
40 *59:B *41:42 4.82863e-05
41 *60:A2 *54:A1 0.000130873
42 *61:A2 *41:42 8.8266e-05
43 *62:A2 *62:A3 4.66108e-05
44 *62:A2 *41:42 0.000114029
45 *62:B1 *54:A1 7.23602e-05
46 *62:B1 *57:B 7.70758e-05
47 *62:B1 *41:36 9.37731e-05
48 *62:B1 *41:60 9.84957e-05
49 *65:C *54:A1 0.000327698
50 *65:D *54:A1 1.47347e-05
51 *66:A3 *54:A1 4.65607e-05
52 *71:A *54:A1 0
53 *72:A *54:A1 0
54 *15:35 *54:A1 0.000101884
55 *20:10 *50:B 2.50702e-05
56 *20:10 *41:23 1.03323e-05
57 *37:45 *54:A1 0.000105788
*RES
1 *68:Q *41:4 1.6 
2 *41:4 *50:B 9.515 
3 *41:4 *41:23 4.52 
4 *41:23 *57:B 5.43 
5 *41:23 *41:36 1.125 
6 *41:36 *41:42 7.64 
7 *41:42 *56:A2 1.96 
8 *41:42 *78:A 5.515 
9 *41:36 *41:60 1.125 
10 *41:60 *62:A3 4.05 
11 *41:60 *54:A1 16.465 
*END

*D_NET *42 0.00421394
*CONN
*I *79:A I *D sky130_fd_sc_hd__buf_1
*I *56:B1 I *D sky130_fd_sc_hd__a21o_1
*I *60:A1 I *D sky130_fd_sc_hd__a21oi_1
*I *63:B I *D sky130_fd_sc_hd__nand2b_1
*I *57:C I *D sky130_fd_sc_hd__nand3_1
*I *69:Q O *D sky130_fd_sc_hd__dfxtp_1
*CAP
1 *79:A 0
2 *56:B1 1.90984e-05
3 *60:A1 5.99173e-05
4 *63:B 0.000333983
5 *57:C 3.2082e-05
6 *69:Q 0.000173432
7 *42:37 0.000449762
8 *42:24 0.000245703
9 *42:20 0.000343306
10 *42:12 0.000339881
11 counter[1] *42:12 0
12 *46:B *63:B 0.000116277
13 *52:A *57:C 5.2072e-05
14 *53:A *63:B 0
15 *54:A1 *42:37 4.14369e-05
16 *55:A3 *63:B 0
17 *56:A2 *56:B1 4.00541e-06
18 *56:A2 *42:20 0
19 *57:B *57:C 0.000100156
20 *57:B *42:24 0
21 *58:A *42:24 8.8266e-05
22 *58:B *42:24 1.67266e-05
23 *59:A *42:24 0.000158066
24 *59:B *42:24 2.75145e-05
25 *61:A1 *60:A1 0
26 *61:B1 *60:A1 4.00541e-06
27 *62:A2 *60:A1 0.00014719
28 *62:A2 *63:B 6.74384e-05
29 *64:A2 *63:B 6.42013e-05
30 *72:A *60:A1 8.88715e-05
31 *72:A *63:B 6.52265e-05
32 *78:A *42:12 1.54878e-05
33 *78:A *42:20 0.000188757
34 *15:19 *63:B 8.82557e-05
35 *15:35 *63:B 4.82863e-05
36 *37:8 *63:B 0.000177365
37 *37:32 *63:B 2.32597e-05
38 *39:14 *63:B 6.15763e-05
39 *39:27 *63:B 7.49327e-05
40 *39:31 *57:C 4.18603e-06
41 *39:31 *63:B 6.58955e-06
42 *39:31 *42:37 8.64657e-05
43 *40:23 *42:12 0
44 *40:29 *42:12 0
45 *40:29 *42:20 0
46 *40:29 *42:24 0
47 *41:23 *42:24 4.66108e-05
48 *41:36 *57:C 2.07184e-05
49 *41:36 *42:37 7.47215e-05
50 *41:42 *42:20 4.43682e-05
51 *41:42 *42:24 0.000123091
52 *41:60 *42:37 9.06521e-05
*RES
1 *69:Q *42:12 8.375 
2 *42:12 *42:20 4.125 
3 *42:20 *42:24 6.59 
4 *42:24 *57:C 4.98 
5 *42:24 *42:37 4.4 
6 *42:37 *63:B 14.1425 
7 *42:37 *60:A1 3.445 
8 *42:20 *56:B1 1.96 
9 *42:12 *79:A 1.6 
*END

*D_NET *43 0.0024686
*CONN
*I *64:B1 I *D sky130_fd_sc_hd__a31o_1
*I *80:A I *D sky130_fd_sc_hd__buf_1
*I *65:B I *D sky130_fd_sc_hd__nand4_1
*I *70:Q O *D sky130_fd_sc_hd__dfxtp_1
*CAP
1 *64:B1 0.000238472
2 *80:A 0.000190225
3 *65:B 0.000279662
4 *70:Q 0
5 *43:29 0.00061312
6 *43:6 0.000464085
7 *48:A2 *65:B 0
8 *54:A1 *65:B 1.03323e-05
9 *54:B1 *65:B 0
10 *65:D *65:B 0.000138329
11 *66:A2 *65:B 0.000120888
12 *66:A3 *65:B 1.39724e-05
13 *66:B1 *64:B1 0
14 *66:B1 *65:B 0.00010663
15 *66:B1 *43:29 0
16 *70:CLK *64:B1 0
17 *70:D *80:A 0
18 *70:D *43:29 0
19 *17:10 *64:B1 0
20 *17:10 *65:B 3.19349e-05
21 *17:38 *65:B 1.33293e-05
22 *18:18 *65:B 7.23343e-05
23 *18:24 *65:B 0.000175281
*RES
1 *70:Q *43:6 3.6 
2 *43:6 *65:B 10.965 
3 *43:6 *43:29 5.81 
4 *43:29 *80:A 4.81 
5 *43:29 *64:B1 9.785 
*END
