*SPEF "ieee 1481-1999"
*DESIGN "counter_dut"
*DATE "10:06:03 Wednesday December 04, 2024"
*VENDOR "The OpenROAD Project"
*PROGRAM "OpenROAD"
*VERSION "edf00dff99f6c40d67a30c0e22a8191c5d2ed9d6"
*DESIGN_FLOW "NAME_SCOPE LOCAL" "PIN_CAP NONE"
*DIVIDER /
*DELIMITER :
*BUS_DELIMITER []
*T_UNIT 1 NS
*C_UNIT 1 PF
*R_UNIT 1 OHM
*L_UNIT 1 HENRY

*NAME_MAP
*1 clk
*2 counter[0]
*3 counter[1]
*4 counter[2]
*5 counter[3]
*6 enable
*7 reset
*8 up_down
*11 _00_
*12 _01_
*13 _02_
*14 _03_
*15 _04_
*16 _05_
*17 _06_
*18 _07_
*19 _08_
*20 _09_
*21 _10_
*22 _11_
*23 _12_
*24 _13_
*25 _14_
*26 _15_
*27 _16_
*28 _17_
*29 _18_
*30 _19_
*31 _20_
*32 _21_
*33 _22_
*34 clknet_0_clk
*35 clknet_1_0__leaf_clk
*36 clknet_1_1__leaf_clk
*37 net1
*38 net2
*39 net3
*40 net4
*41 net5
*42 net6
*43 net7
*44 _23_
*45 _24_
*46 _25_
*47 _26_
*48 _27_
*49 _28_
*50 _29_
*51 _30_
*52 _31_
*53 _32_
*54 _33_
*55 _34_
*56 _35_
*57 _36_
*58 _37_
*59 _38_
*60 _39_
*61 _40_
*62 _41_
*63 _42_
*64 _43_
*65 _44_
*66 _45_
*67 _46_
*68 _47_
*69 _48_
*70 _49_
*71 clkbuf_0_clk
*72 clkbuf_1_0__f_clk
*73 clkbuf_1_1__f_clk
*74 input1
*75 input2
*76 input3
*77 output4
*78 output5
*79 output6
*80 output7

*PORTS
clk I
counter[0] O
counter[1] O
counter[2] O
counter[3] O
enable I
reset I
up_down I

*D_NET *1 0.00151794
*CONN
*P clk I
*I *71:A I *D sky130_fd_sc_hd__clkbuf_16
*CAP
1 clk 0.000653632
2 *71:A 0.000653632
3 *71:A *46:A 0
4 *71:A *54:A1 0
5 *71:A *72:A 0.000100477
6 *71:A *74:A 5.63302e-05
7 *71:A *76:A 5.38666e-05
*RES
1 clk *71:A 6.99577 
*END

*D_NET *2 0.000328068
*CONN
*P counter[0] O
*I *77:X O *D sky130_fd_sc_hd__buf_2
*CAP
1 counter[0] 0.000132263
2 *77:X 0.000132263
3 counter[0] counter[1] 6.35417e-05
*RES
1 *77:X counter[0] 4.73023 
*END

*D_NET *3 0.000499521
*CONN
*P counter[1] O
*I *78:X O *D sky130_fd_sc_hd__buf_2
*CAP
1 counter[1] 0.00018499
2 *78:X 0.00018499
3 counter[1] counter[2] 6.59989e-05
4 counter[1] *42:12 0
5 counter[0] counter[1] 6.35417e-05
*RES
1 *78:X counter[1] 6.26023 
*END

*D_NET *4 0.000593886
*CONN
*P counter[2] O
*I *79:X O *D sky130_fd_sc_hd__buf_2
*CAP
1 counter[2] 0.000263944
2 *79:X 0.000263944
3 counter[1] counter[2] 6.59989e-05
*RES
1 *79:X counter[2] 5.2183 
*END

*D_NET *5 0.000334786
*CONN
*P counter[3] O
*I *80:X O *D sky130_fd_sc_hd__buf_2
*CAP
1 counter[3] 0.00014046
2 *80:X 0.00014046
3 counter[3] *75:A 5.38666e-05
*RES
1 *80:X counter[3] 4.73023 
*END

*D_NET *6 0.000384367
*CONN
*P enable I
*I *74:A I *D sky130_fd_sc_hd__buf_1
*CAP
1 enable 0.000112232
2 *74:A 0.000112232
3 *74:A *70:CLK 4.97067e-05
4 *74:A *75:A 5.38666e-05
5 *71:A *74:A 5.63302e-05
*RES
1 enable *74:A 5.43697 
*END

*D_NET *7 0.000423577
*CONN
*P reset I
*I *75:A I *D sky130_fd_sc_hd__buf_1
*CAP
1 reset 0.000126351
2 *75:A 0.000126351
3 *75:A *70:CLK 6.31427e-05
4 counter[3] *75:A 5.38666e-05
5 *74:A *75:A 5.38666e-05
*RES
1 reset *75:A 5.69197 
*END

*D_NET *8 0.000457249
*CONN
*P up_down I
*I *76:A I *D sky130_fd_sc_hd__buf_1
*CAP
1 up_down 0.000201691
2 *76:A 0.000201691
3 *76:A *63:A_N 0
4 *71:A *76:A 5.38666e-05
*RES
1 up_down *76:A 6.20197 
*END

*D_NET *11 0.000351114
*CONN
*I *67:D I *D sky130_fd_sc_hd__dfxtp_2
*I *49:Y O *D sky130_fd_sc_hd__o21ai_1
*CAP
1 *67:D 0.000141405
2 *49:Y 0.000141405
3 *67:D *60:A2 0
4 *67:D *36:10 1.59789e-05
5 *67:D *40:8 5.2325e-05
*RES
1 *49:Y *67:D 10.0087 
*END

*D_NET *12 0.000720007
*CONN
*I *68:D I *D sky130_fd_sc_hd__dfxtp_1
*I *55:X O *D sky130_fd_sc_hd__a31o_1
*CAP
1 *68:D 0.000253039
2 *55:X 0.000253039
3 *68:D *55:A3 0.000187047
4 *68:D *63:A_N 0
5 *68:D *39:6 1.26934e-06
6 *68:D *39:19 2.56118e-05
*RES
1 *55:X *68:D 12.7388 
*END

*D_NET *13 0.000573217
*CONN
*I *69:D I *D sky130_fd_sc_hd__dfxtp_1
*I *61:Y O *D sky130_fd_sc_hd__o21ai_1
*CAP
1 *69:D 0.000185517
2 *61:Y 0.000185517
3 *69:D *60:A1 2.51172e-05
4 *69:D *60:A2 6.31317e-05
5 *69:D *61:A2 2.11084e-05
6 *69:D *61:B1 6.20192e-05
7 *69:D *72:A 0
8 *69:D *40:80 0
9 *69:D *41:44 3.0807e-05
*RES
1 *61:Y *69:D 7.52 
*END

*D_NET *14 0.000663886
*CONN
*I *70:D I *D sky130_fd_sc_hd__dfxtp_1
*I *66:X O *D sky130_fd_sc_hd__a31o_1
*CAP
1 *70:D 0.000244628
2 *66:X 0.000244628
3 *70:D *47:B 0
4 *70:D *66:A2 1.84044e-05
5 *70:D *80:A 0
6 *70:D *15:38 0.000118294
7 *70:D *18:6 3.79314e-05
8 *70:D *31:12 0
9 *70:D *38:8 0
*RES
1 *66:X *70:D 8.18375 
*END

*D_NET *15 0.00314462
*CONN
*I *66:A1 I *D sky130_fd_sc_hd__a31o_1
*I *45:B I *D sky130_fd_sc_hd__nand2_1
*I *55:A2 I *D sky130_fd_sc_hd__a31o_1
*I *46:A I *D sky130_fd_sc_hd__nor2_1
*I *44:Y O *D sky130_fd_sc_hd__inv_2
*CAP
1 *66:A1 0
2 *45:B 6.26351e-05
3 *55:A2 0
4 *46:A 0.000238143
5 *44:Y 6.6019e-05
6 *15:38 0.000406166
7 *15:10 0.000302564
8 *15:8 0.000473971
9 *45:B *54:B1 2.55546e-05
10 *45:B *66:A2 9.53428e-06
11 *45:B *17:34 8.8266e-05
12 *45:B *18:6 0
13 *45:B *18:15 0
14 *46:A *50:A 1.61831e-05
15 *46:A *50:B 0.000174891
16 *46:A *54:A1 0
17 *46:A *55:A3 0.000531806
18 *46:A *62:A1 0
19 *46:A *39:19 9.27495e-05
20 *46:A *39:23 0
21 *15:8 *31:12 0.000244732
22 *15:8 *37:8 2.91291e-05
23 *15:10 *54:A1 0
24 *15:10 *70:CLK 0
25 *15:10 *37:12 1.93834e-05
26 *15:10 *37:16 0.000102192
27 *15:38 *54:B1 4.82919e-05
28 *15:38 *66:A2 4.41506e-05
29 *15:38 *70:CLK 0
30 *15:38 *80:A 0
31 *15:38 *37:16 4.9968e-05
32 *15:38 *43:8 0
33 *70:D *15:38 0.000118294
34 *71:A *46:A 0
*RES
1 *44:Y *15:8 5.775 
2 *15:8 *15:10 1.635 
3 *15:10 *46:A 11.055 
4 *15:10 *55:A2 3.6 
5 *15:8 *15:38 8.93 
6 *15:38 *45:B 3.1 
7 *15:38 *66:A1 1.6 
*END

*D_NET *16 0.00198623
*CONN
*I *49:A2 I *D sky130_fd_sc_hd__o21ai_1
*I *61:A1 I *D sky130_fd_sc_hd__o21ai_1
*I *45:Y O *D sky130_fd_sc_hd__nand2_1
*CAP
1 *49:A2 0.000152
2 *61:A1 8.29878e-05
3 *45:Y 0.000115138
4 *16:8 0.000350126
5 *49:A2 *49:B1 0.000344459
6 *49:A2 *63:B 6.27029e-05
7 *49:A2 *37:42 8.40269e-05
8 *49:A2 *40:8 0.000120596
9 *49:A2 *40:16 6.0147e-06
10 *49:A2 *40:80 3.23663e-05
11 *61:A1 *62:B1 9.50342e-06
12 *61:A1 *65:C 8.53113e-06
13 *61:A1 *17:10 0
14 *61:A1 *17:19 0
15 *61:A1 *30:8 0.000162318
16 *61:A1 *40:16 7.30547e-05
17 *61:A1 *40:22 2.13396e-05
18 *16:8 *45:A 7.53115e-05
19 *16:8 *54:A1 0
20 *16:8 *54:B1 0
21 *16:8 *65:C 0.000153794
22 *16:8 *37:42 1.34361e-05
23 *16:8 *40:16 0.000118527
*RES
1 *45:Y *16:8 6.765 
2 *16:8 *61:A1 6 
3 *16:8 *49:A2 8.535 
*END

*D_NET *17 0.004032
*CONN
*I *54:B1 I *D sky130_fd_sc_hd__a21o_1
*I *66:B1 I *D sky130_fd_sc_hd__a31o_1
*I *48:B1 I *D sky130_fd_sc_hd__a21oi_1
*I *60:B1 I *D sky130_fd_sc_hd__a21oi_1
*I *46:Y O *D sky130_fd_sc_hd__nor2_1
*CAP
1 *54:B1 0.000182298
2 *66:B1 0
3 *48:B1 1.10883e-05
4 *60:B1 0
5 *46:Y 0.00028579
6 *17:34 0.000368962
7 *17:19 0.000347292
8 *17:10 0.00043533
9 *48:B1 *48:A1 1.08758e-05
10 *48:B1 *18:15 4.82863e-05
11 *48:B1 *40:16 2.16833e-05
12 *54:B1 *45:A 0
13 *54:B1 *54:A1 5.16418e-05
14 *54:B1 *54:A2 5.4155e-06
15 *54:B1 *65:D 4.96038e-05
16 *54:B1 *66:A3 0.000164686
17 *54:B1 *18:6 4.58816e-05
18 *54:B1 *43:8 0
19 *17:10 *50:A 0.000272978
20 *17:10 *52:A 2.54431e-05
21 *17:10 *52:B 4.99619e-05
22 *17:10 *57:B 7.68414e-06
23 *17:10 *57:C 0.000501617
24 *17:10 *59:B 8.16252e-05
25 *17:10 *61:A2 3.26084e-05
26 *17:10 *62:B1 0
27 *17:10 *40:30 0
28 *17:10 *42:41 0.000200648
29 *17:19 *45:A 1.89685e-05
30 *17:19 *49:B1 0.000120881
31 *17:19 *63:B 0.000155169
32 *17:19 *73:A 0.000104994
33 *17:19 *37:42 2.42236e-05
34 *17:19 *40:16 1.53032e-05
35 *17:19 *42:41 9.50342e-06
36 *17:34 *45:A 0.000137815
37 *17:34 *73:A 8.16252e-05
38 *17:34 *18:15 0
39 *45:B *54:B1 2.55546e-05
40 *45:B *17:34 8.8266e-05
41 *61:A1 *17:10 0
42 *61:A1 *17:19 0
43 *15:38 *54:B1 4.82919e-05
44 *16:8 *54:B1 0
*RES
1 *46:Y *17:10 12.54 
2 *17:10 *60:B1 3.6 
3 *17:10 *17:19 4.185 
4 *17:19 *48:B1 4.05 
5 *17:19 *17:34 6.665 
6 *17:34 *66:B1 1.6 
7 *17:34 *54:B1 9.83 
*END

*D_NET *18 0.002497
*CONN
*I *60:A2 I *D sky130_fd_sc_hd__a21oi_1
*I *48:A2 I *D sky130_fd_sc_hd__a21oi_1
*I *54:A2 I *D sky130_fd_sc_hd__a21o_1
*I *47:Y O *D sky130_fd_sc_hd__nor2_1
*CAP
1 *60:A2 0.000277272
2 *48:A2 1.85694e-05
3 *54:A2 1.66402e-05
4 *47:Y 0.000177916
5 *18:15 0.000461108
6 *18:6 0.000359822
7 *48:A2 *48:A1 9.53428e-06
8 *54:A2 *65:D 9.53428e-06
9 *60:A2 *69:CLK 0.000310629
10 *60:A2 *36:10 4.18248e-05
11 *60:A2 *40:8 3.0807e-05
12 *60:A2 *40:80 8.51589e-06
13 *18:6 *47:A 4.47125e-05
14 *18:6 *64:B1 0.000199833
15 *18:6 *65:D 0.000101593
16 *18:6 *66:A2 9.35713e-05
17 *18:6 *31:12 1.61831e-05
18 *18:15 *45:A 0
19 *18:15 *48:A1 2.16917e-05
20 *18:15 *65:B 2.43316e-05
21 *18:15 *65:D 2.30292e-05
22 *18:15 *66:A3 1.34503e-05
23 *18:15 *40:8 1.03323e-05
24 *18:15 *40:16 2.54522e-05
25 *45:B *18:6 0
26 *45:B *18:15 0
27 *48:B1 *18:15 4.82863e-05
28 *54:B1 *54:A2 5.4155e-06
29 *54:B1 *18:6 4.58816e-05
30 *67:D *60:A2 0
31 *69:D *60:A2 6.31317e-05
32 *70:D *18:6 3.79314e-05
33 *17:34 *18:15 0
*RES
1 *47:Y *18:6 6.535 
2 *18:6 *54:A2 1.96 
3 *18:6 *18:15 3.21 
4 *18:15 *48:A2 1.96 
5 *18:15 *60:A2 12.08 
*END

*D_NET *19 0.00101788
*CONN
*I *49:B1 I *D sky130_fd_sc_hd__o21ai_1
*I *48:Y O *D sky130_fd_sc_hd__a21oi_1
*CAP
1 *49:B1 0.000109868
2 *48:Y 0.000109868
3 *49:B1 *63:B 8.40213e-05
4 *49:B1 *37:42 7.70828e-05
5 *49:B1 *40:16 2.34345e-05
6 *49:B1 *40:80 0.000148267
7 *49:A2 *49:B1 0.000344459
8 *17:19 *49:B1 0.000120881
*RES
1 *48:Y *49:B1 11.79 
*END

*D_NET *20 0.000892236
*CONN
*I *51:B I *D sky130_fd_sc_hd__or2_1
*I *52:B I *D sky130_fd_sc_hd__nand2_1
*I *50:X O *D sky130_fd_sc_hd__xor2_1
*CAP
1 *51:B 8.67754e-05
2 *52:B 3.20199e-05
3 *50:X 0.000151536
4 *20:12 0.000270331
5 *51:B *50:B 3.05646e-05
6 *51:B *53:A 0
7 *51:B *53:B 2.97004e-06
8 *51:B *57:B 3.05238e-05
9 *51:B *39:23 9.78082e-05
10 *51:B *41:38 9.3062e-06
11 *52:B *46:B 9.53428e-06
12 *52:B *50:A 2.0514e-05
13 *52:B *52:A 2.84447e-05
14 *52:B *57:C 9.72742e-06
15 *52:B *39:49 2.39395e-05
16 *20:12 *50:B 4.43871e-06
17 *20:12 *53:B 2.45722e-05
18 *20:12 *55:A3 9.26907e-06
19 *17:10 *52:B 4.99619e-05
*RES
1 *50:X *20:12 5.715 
2 *20:12 *52:B 4.755 
3 *20:12 *51:B 5.49 
*END

*D_NET *21 0.00142382
*CONN
*I *59:A I *D sky130_fd_sc_hd__xnor2_1
*I *53:A I *D sky130_fd_sc_hd__nand2_1
*I *51:X O *D sky130_fd_sc_hd__or2_1
*CAP
1 *59:A 9.82464e-05
2 *53:A 0.000272914
3 *51:X 0
4 *21:4 0.000371161
5 *53:A *50:A 2.21613e-05
6 *53:A *53:B 0.000289581
7 *53:A *55:A3 3.00381e-05
8 *53:A *57:B 7.5416e-05
9 *53:A *40:30 4.40358e-05
10 *53:A *41:38 8.53113e-06
11 *59:A *56:A1 8.40269e-05
12 *59:A *57:B 1.32843e-05
13 *59:A *41:44 0.000114424
14 *51:B *53:A 0
*RES
1 *51:X *21:4 1.6 
2 *21:4 *53:A 11.555 
3 *21:4 *59:A 4.045 
*END

*D_NET *22 0.000586499
*CONN
*I *53:B I *D sky130_fd_sc_hd__nand2_1
*I *52:Y O *D sky130_fd_sc_hd__nand2_1
*CAP
1 *53:B 0.000134688
2 *52:Y 0.000134688
3 *53:B *55:A3 0
4 *51:B *53:B 2.97004e-06
5 *53:A *53:B 0.000289581
6 *20:12 *53:B 2.45722e-05
*RES
1 *52:Y *53:B 10.485 
*END

*D_NET *23 0.00153418
*CONN
*I *55:A3 I *D sky130_fd_sc_hd__a31o_1
*I *53:Y O *D sky130_fd_sc_hd__nand2_1
*CAP
1 *55:A3 0.00035229
2 *53:Y 0.00035229
3 *55:A3 *50:A 7.14386e-05
4 *55:A3 *50:B 0
5 *55:A3 *63:A_N 0
6 *46:A *55:A3 0.000531806
7 *53:A *55:A3 3.00381e-05
8 *53:B *55:A3 0
9 *68:D *55:A3 0.000187047
10 *20:12 *55:A3 9.26907e-06
*RES
1 *53:Y *55:A3 16.53 
*END

*D_NET *24 0.000530937
*CONN
*I *55:B1 I *D sky130_fd_sc_hd__a31o_1
*I *54:X O *D sky130_fd_sc_hd__a21o_1
*CAP
1 *55:B1 0.000101962
2 *54:X 0.000101962
3 *55:B1 *54:A1 0
4 *55:B1 *63:B 0.000164874
5 *55:B1 *64:A2 0.000134626
6 *55:B1 *31:12 0
7 *55:B1 *37:42 2.75129e-05
*RES
1 *54:X *55:B1 10.065 
*END

*D_NET *25 0.000402634
*CONN
*I *58:A I *D sky130_fd_sc_hd__nand2_1
*I *56:X O *D sky130_fd_sc_hd__a21o_1
*CAP
1 *58:A 0.000132453
2 *56:X 0.000132453
3 *58:A *56:A1 5.37074e-05
4 *58:A *57:C 8.40213e-05
5 *58:A *58:B 0
*RES
1 *56:X *58:A 5.825 
*END

*D_NET *26 0.000870521
*CONN
*I *62:B1 I *D sky130_fd_sc_hd__o31ai_1
*I *58:B I *D sky130_fd_sc_hd__nand2_1
*I *57:Y O *D sky130_fd_sc_hd__nand3_1
*CAP
1 *62:B1 0.000104542
2 *58:B 5.66516e-05
3 *57:Y 0
4 *26:4 0.000161194
5 *58:B *52:A 0
6 *58:B *56:A1 1.16646e-05
7 *58:B *57:B 3.26889e-05
8 *58:B *57:C 5.05521e-05
9 *62:B1 *59:B 5.92849e-05
10 *62:B1 *61:A2 4.58406e-05
11 *62:B1 *40:22 7.70828e-05
12 *62:B1 *40:24 0.000163019
13 *62:B1 *40:30 9.84957e-05
14 *58:A *58:B 0
15 *61:A1 *62:B1 9.50342e-06
16 *17:10 *62:B1 0
*RES
1 *57:Y *26:4 1.6 
2 *26:4 *58:B 3.115 
3 *26:4 *62:B1 9.275 
*END

*D_NET *27 0.000328065
*CONN
*I *59:B I *D sky130_fd_sc_hd__xnor2_1
*I *58:Y O *D sky130_fd_sc_hd__nand2_1
*CAP
1 *59:B 5.56769e-05
2 *58:Y 5.56769e-05
3 *59:B *56:A1 2.75145e-05
4 *59:B *41:44 4.82863e-05
5 *62:B1 *59:B 5.92849e-05
6 *17:10 *59:B 8.16252e-05
*RES
1 *58:Y *59:B 9.285 
*END

*D_NET *28 0.000271429
*CONN
*I *61:A2 I *D sky130_fd_sc_hd__o21ai_1
*I *59:Y O *D sky130_fd_sc_hd__xnor2_1
*CAP
1 *61:A2 4.18028e-05
2 *59:Y 4.18028e-05
3 *61:A2 *41:44 8.8266e-05
4 *62:B1 *61:A2 4.58406e-05
5 *69:D *61:A2 2.11084e-05
6 *17:10 *61:A2 3.26084e-05
*RES
1 *59:Y *61:A2 8.865 
*END

*D_NET *29 0.000132315
*CONN
*I *61:B1 I *D sky130_fd_sc_hd__o21ai_1
*I *60:Y O *D sky130_fd_sc_hd__a21oi_1
*CAP
1 *61:B1 3.51477e-05
2 *60:Y 3.51477e-05
3 *61:B1 *54:A1 0
4 *61:B1 *72:A 0
5 *69:D *61:B1 6.20192e-05
*RES
1 *60:Y *61:B1 4.01 
*END

*D_NET *30 0.00183027
*CONN
*I *65:C I *D sky130_fd_sc_hd__nand4_1
*I *64:A2 I *D sky130_fd_sc_hd__a31o_1
*I *62:Y O *D sky130_fd_sc_hd__o31ai_1
*CAP
1 *65:C 5.44072e-05
2 *64:A2 0.000169947
3 *62:Y 4.60201e-05
4 *30:8 0.000270375
5 *64:A2 *54:A1 0
6 *64:A2 *63:B 0.00015482
7 *64:A2 *65:B 1.22762e-05
8 *64:A2 *37:16 8.44038e-05
9 *64:A2 *37:42 0.000396989
10 *65:C *54:A1 5.84989e-05
11 *30:8 *54:A1 2.54692e-05
12 *30:8 *40:22 9.77943e-05
13 *55:B1 *64:A2 0.000134626
14 *61:A1 *65:C 8.53113e-06
15 *61:A1 *30:8 0.000162318
16 *16:8 *65:C 0.000153794
*RES
1 *62:Y *30:8 5.49 
2 *30:8 *64:A2 13.345 
3 *30:8 *65:C 5.49 
*END

*D_NET *31 0.0017869
*CONN
*I *65:D I *D sky130_fd_sc_hd__nand4_1
*I *64:A3 I *D sky130_fd_sc_hd__a31o_1
*I *63:Y O *D sky130_fd_sc_hd__nand2b_1
*CAP
1 *65:D 9.15715e-05
2 *64:A3 0
3 *63:Y 0.000209017
4 *31:12 0.000300589
5 *65:D *64:B1 8.65905e-05
6 *65:D *65:B 0.000121184
7 *65:D *66:A3 0.000160641
8 *65:D *37:42 6.01884e-06
9 *31:12 *47:A 0.000122325
10 *31:12 *47:B 6.90876e-05
11 *31:12 *63:B 0
12 *31:12 *64:B1 3.38425e-05
13 *31:12 *65:B 0
14 *31:12 *37:8 7.60965e-05
15 *31:12 *37:42 2.65814e-06
16 *31:12 *38:8 6.26016e-05
17 *54:A2 *65:D 9.53428e-06
18 *54:B1 *65:D 4.96038e-05
19 *55:B1 *31:12 0
20 *70:D *31:12 0
21 *15:8 *31:12 0.000244732
22 *18:6 *65:D 0.000101593
23 *18:6 *31:12 1.61831e-05
24 *18:15 *65:D 2.30292e-05
*RES
1 *63:Y *31:12 8.47 
2 *31:12 *64:A3 1.6 
3 *31:12 *65:D 5.17 
*END

*D_NET *32 0.000546422
*CONN
*I *66:A2 I *D sky130_fd_sc_hd__a31o_1
*I *64:X O *D sky130_fd_sc_hd__a31o_1
*CAP
1 *66:A2 0.000113365
2 *64:X 0.000113365
3 *66:A2 *66:A3 9.84957e-05
4 *66:A2 *43:8 5.55344e-05
5 *45:B *66:A2 9.53428e-06
6 *70:D *66:A2 1.84044e-05
7 *15:38 *66:A2 4.41506e-05
8 *18:6 *66:A2 9.35713e-05
*RES
1 *64:X *66:A2 10.275 
*END

*D_NET *33 0.000929881
*CONN
*I *66:A3 I *D sky130_fd_sc_hd__a31o_1
*I *65:Y O *D sky130_fd_sc_hd__nand4_1
*CAP
1 *66:A3 0.000115491
2 *65:Y 0.000115491
3 *66:A3 *54:A1 2.15594e-05
4 *66:A3 *65:B 0.000216335
5 *66:A3 *43:8 2.37321e-05
6 *54:B1 *66:A3 0.000164686
7 *65:D *66:A3 0.000160641
8 *66:A2 *66:A3 9.84957e-05
9 *18:15 *66:A3 1.34503e-05
*RES
1 *65:Y *66:A3 11.43 
*END

*D_NET *34 0.00183775
*CONN
*I *73:A I *D sky130_fd_sc_hd__clkbuf_16
*I *72:A I *D sky130_fd_sc_hd__clkbuf_16
*I *71:X O *D sky130_fd_sc_hd__clkbuf_16
*CAP
1 *73:A 0.000140135
2 *72:A 0.000230938
3 *71:X 0
4 *34:4 0.000371073
5 *72:A *54:A1 4.27658e-05
6 *72:A *60:A1 5.36384e-06
7 *72:A *62:A1 6.60261e-06
8 *72:A *62:A2 0
9 *72:A *62:A3 0
10 *72:A *63:B 0.000107424
11 *72:A *40:22 0.000119762
12 *72:A *40:80 0.000184707
13 *72:A *41:66 0
14 *73:A *63:B 4.9968e-05
15 *73:A *69:CLK 0.00017887
16 *73:A *36:10 0.000113044
17 *61:B1 *72:A 0
18 *69:D *72:A 0
19 *71:A *72:A 0.000100477
20 *17:19 *73:A 0.000104994
21 *17:34 *73:A 8.16252e-05
*RES
1 *71:X *34:4 1.6 
2 *34:4 *72:A 11.315 
3 *34:4 *73:A 10.04 
*END

*D_NET *35 0.0011997
*CONN
*I *70:CLK I *D sky130_fd_sc_hd__dfxtp_1
*I *68:CLK I *D sky130_fd_sc_hd__dfxtp_1
*I *72:X O *D sky130_fd_sc_hd__clkbuf_16
*CAP
1 *70:CLK 0.000310401
2 *68:CLK 0.000123015
3 *72:X 0
4 *35:6 0.000433416
5 *68:CLK *63:A_N 0.00012292
6 *68:CLK *39:6 1.54061e-06
7 *70:CLK *63:A_N 9.55573e-05
8 *74:A *70:CLK 4.97067e-05
9 *75:A *70:CLK 6.31427e-05
10 *15:10 *70:CLK 0
11 *15:38 *70:CLK 0
*RES
1 *72:X *35:6 3.6 
2 *35:6 *68:CLK 6.45 
3 *35:6 *70:CLK 9.57 
*END

*D_NET *36 0.00162369
*CONN
*I *67:CLK I *D sky130_fd_sc_hd__dfxtp_2
*I *69:CLK I *D sky130_fd_sc_hd__dfxtp_1
*I *73:X O *D sky130_fd_sc_hd__clkbuf_16
*CAP
1 *67:CLK 0
2 *69:CLK 0.000150672
3 *73:X 0.000305572
4 *36:10 0.000456244
5 *69:CLK *63:B 4.78859e-05
6 *69:CLK *42:41 2.97004e-06
7 *36:10 *40:8 0
8 *60:A2 *69:CLK 0.000310629
9 *60:A2 *36:10 4.18248e-05
10 *67:D *36:10 1.59789e-05
11 *73:A *69:CLK 0.00017887
12 *73:A *36:10 0.000113044
*RES
1 *73:X *36:10 9.57 
2 *36:10 *69:CLK 8.34 
3 *36:10 *67:CLK 3.6 
*END

*D_NET *37 0.00311252
*CONN
*I *55:A1 I *D sky130_fd_sc_hd__a31o_1
*I *45:A I *D sky130_fd_sc_hd__nand2_1
*I *65:A I *D sky130_fd_sc_hd__nand4_1
*I *64:A1 I *D sky130_fd_sc_hd__a31o_1
*I *47:A I *D sky130_fd_sc_hd__nor2_1
*I *74:X O *D sky130_fd_sc_hd__buf_1
*CAP
1 *55:A1 0
2 *45:A 8.06181e-05
3 *65:A 0
4 *64:A1 0
5 *47:A 4.77352e-05
6 *74:X 0.00017314
7 *37:42 0.000326658
8 *37:16 8.51875e-05
9 *37:12 0.000292273
10 *37:8 0.00018192
11 *47:A *64:B1 4.66108e-05
12 *37:8 *63:B 0.000238722
13 *37:8 *38:8 0
14 *37:42 *63:B 8.34281e-06
15 *37:42 *65:B 0.000129176
16 *37:42 *40:16 0.000109888
17 *49:A2 *37:42 8.40269e-05
18 *49:B1 *37:42 7.70828e-05
19 *54:B1 *45:A 0
20 *55:B1 *37:42 2.75129e-05
21 *64:A2 *37:16 8.44038e-05
22 *64:A2 *37:42 0.000396989
23 *65:D *37:42 6.01884e-06
24 *15:8 *37:8 2.91291e-05
25 *15:10 *37:12 1.93834e-05
26 *15:10 *37:16 0.000102192
27 *15:38 *37:16 4.9968e-05
28 *16:8 *45:A 7.53115e-05
29 *16:8 *37:42 1.34361e-05
30 *17:19 *45:A 1.89685e-05
31 *17:19 *37:42 2.42236e-05
32 *17:34 *45:A 0.000137815
33 *18:6 *47:A 4.47125e-05
34 *18:15 *45:A 0
35 *31:12 *47:A 0.000122325
36 *31:12 *37:8 7.60965e-05
37 *31:12 *37:42 2.65814e-06
*RES
1 *74:X *37:8 5.86 
2 *37:8 *37:12 2.2325 
3 *37:12 *37:16 3.7625 
4 *37:16 *47:A 3.1 
5 *37:16 *64:A1 1.6 
6 *37:12 *37:42 11.2525 
7 *37:42 *65:A 3.6 
8 *37:42 *45:A 6.195 
9 *37:8 *55:A1 1.6 
*END

*D_NET *38 0.000392685
*CONN
*I *47:B I *D sky130_fd_sc_hd__nor2_1
*I *44:A I *D sky130_fd_sc_hd__inv_2
*I *75:X O *D sky130_fd_sc_hd__buf_1
*CAP
1 *47:B 4.23748e-05
2 *44:A 0
3 *75:X 8.8123e-05
4 *38:8 0.000130498
5 *70:D *47:B 0
6 *70:D *38:8 0
7 *31:12 *47:B 6.90876e-05
8 *31:12 *38:8 6.26016e-05
9 *37:8 *38:8 0
*RES
1 *75:X *38:8 3.355 
2 *38:8 *44:A 1.6 
3 *38:8 *47:B 2.74 
*END

*D_NET *39 0.00263555
*CONN
*I *52:A I *D sky130_fd_sc_hd__nand2_1
*I *46:B I *D sky130_fd_sc_hd__nor2_1
*I *62:A1 I *D sky130_fd_sc_hd__o31ai_1
*I *51:A I *D sky130_fd_sc_hd__or2_1
*I *63:A_N I *D sky130_fd_sc_hd__nand2b_1
*I *76:X O *D sky130_fd_sc_hd__buf_1
*CAP
1 *52:A 4.00643e-05
2 *46:B 1.13776e-05
3 *62:A1 0.000190555
4 *51:A 5.05682e-05
5 *63:A_N 0.000240974
6 *76:X 4.93283e-05
7 *39:49 0.00010266
8 *39:23 0.000283987
9 *39:19 0.000310237
10 *39:6 0.000506458
11 *51:A *50:B 5.83121e-06
12 *51:A *41:23 6.97118e-05
13 *52:A *57:B 5.22918e-05
14 *52:A *57:C 9.53428e-06
15 *52:A *41:23 2.66586e-05
16 *62:A1 *54:A1 0
17 *62:A1 *63:B 0
18 *62:A1 *40:22 0
19 *62:A1 *41:38 0
20 *62:A1 *41:66 5.83121e-06
21 *39:19 *50:A 1.17309e-05
22 *39:19 *50:B 2.91022e-05
23 *39:23 *50:B 7.5416e-05
24 *39:23 *41:38 0
25 *39:49 *50:A 2.8585e-06
26 *39:49 *50:B 3.64998e-06
27 *39:49 *57:B 0
28 *39:49 *41:23 2.53006e-05
29 *46:A *62:A1 0
30 *46:A *39:19 9.27495e-05
31 *46:A *39:23 0
32 *51:B *39:23 9.78082e-05
33 *52:B *46:B 9.53428e-06
34 *52:B *52:A 2.84447e-05
35 *52:B *39:49 2.39395e-05
36 *55:A3 *63:A_N 0
37 *58:B *52:A 0
38 *68:CLK *63:A_N 0.00012292
39 *68:CLK *39:6 1.54061e-06
40 *68:D *63:A_N 0
41 *68:D *39:6 1.26934e-06
42 *68:D *39:19 2.56118e-05
43 *70:CLK *63:A_N 9.55573e-05
44 *72:A *62:A1 6.60261e-06
45 *76:A *63:A_N 0
46 *17:10 *52:A 2.54431e-05
*RES
1 *76:X *39:6 2.395 
2 *39:6 *63:A_N 11.06 
3 *39:6 *39:19 4.245 
4 *39:19 *39:23 3.38 
5 *39:23 *51:A 4.74 
6 *39:23 *62:A1 7.485 
7 *39:19 *39:49 1.26 
8 *39:49 *46:B 1.96 
9 *39:49 *52:A 3.1 
*END

*D_NET *40 0.00616544
*CONN
*I *48:A1 I *D sky130_fd_sc_hd__a21oi_1
*I *77:A I *D sky130_fd_sc_hd__buf_2
*I *49:A1 I *D sky130_fd_sc_hd__o21ai_1
*I *62:A2 I *D sky130_fd_sc_hd__o31ai_1
*I *56:A1 I *D sky130_fd_sc_hd__a21o_1
*I *57:A I *D sky130_fd_sc_hd__nand3_1
*I *50:A I *D sky130_fd_sc_hd__xor2_1
*I *67:Q O *D sky130_fd_sc_hd__dfxtp_2
*CAP
1 *48:A1 3.93609e-05
2 *77:A 0.000144962
3 *49:A1 0
4 *62:A2 3.19521e-05
5 *56:A1 0.000185294
6 *57:A 0
7 *50:A 0.00029953
8 *67:Q 0.000235083
9 *40:80 0.000344641
10 *40:30 0.000400705
11 *40:24 0.000361887
12 *40:22 0.000201673
13 *40:16 0.000404333
14 *40:8 0.000384795
15 *48:A1 *65:B 0
16 *50:A *50:B 0.000163204
17 *56:A1 *57:B 2.65814e-06
18 *56:A1 *57:C 0
19 *56:A1 *41:44 4.77857e-05
20 *56:A1 *42:22 9.78003e-05
21 *56:A1 *42:26 0.000102616
22 *62:A2 *62:A3 3.83041e-05
23 *62:A2 *41:44 3.4383e-05
24 *62:A2 *41:66 3.08098e-05
25 *77:A *42:12 0
26 *40:8 *65:B 0
27 *40:22 *54:A1 9.69363e-05
28 *40:22 *63:B 0.000118081
29 *40:22 *41:66 0
30 *40:24 *41:38 0
31 *40:24 *41:66 0
32 *40:30 *41:38 0
33 *40:80 *63:B 0.00015896
34 *46:A *50:A 1.61831e-05
35 *48:A2 *48:A1 9.53428e-06
36 *48:B1 *48:A1 1.08758e-05
37 *48:B1 *40:16 2.16833e-05
38 *49:A2 *40:8 0.000120596
39 *49:A2 *40:16 6.0147e-06
40 *49:A2 *40:80 3.23663e-05
41 *49:B1 *40:16 2.34345e-05
42 *49:B1 *40:80 0.000148267
43 *52:B *50:A 2.0514e-05
44 *53:A *50:A 2.21613e-05
45 *53:A *40:30 4.40358e-05
46 *55:A3 *50:A 7.14386e-05
47 *58:A *56:A1 5.37074e-05
48 *58:B *56:A1 1.16646e-05
49 *59:A *56:A1 8.40269e-05
50 *59:B *56:A1 2.75145e-05
51 *60:A2 *40:8 3.0807e-05
52 *60:A2 *40:80 8.51589e-06
53 *61:A1 *40:16 7.30547e-05
54 *61:A1 *40:22 2.13396e-05
55 *62:A1 *40:22 0
56 *62:B1 *40:22 7.70828e-05
57 *62:B1 *40:24 0.000163019
58 *62:B1 *40:30 9.84957e-05
59 *67:D *40:8 5.2325e-05
60 *69:D *40:80 0
61 *72:A *62:A2 0
62 *72:A *40:22 0.000119762
63 *72:A *40:80 0.000184707
64 *16:8 *40:16 0.000118527
65 *17:10 *50:A 0.000272978
66 *17:10 *40:30 0
67 *17:19 *40:16 1.53032e-05
68 *18:15 *48:A1 2.16917e-05
69 *18:15 *40:8 1.03323e-05
70 *18:15 *40:16 2.54522e-05
71 *30:8 *40:22 9.77943e-05
72 *36:10 *40:8 0
73 *37:42 *40:16 0.000109888
74 *39:19 *50:A 1.17309e-05
75 *39:49 *50:A 2.8585e-06
*RES
1 *67:Q *40:8 8.275 
2 *40:8 *40:16 7.285 
3 *40:16 *40:22 5.54 
4 *40:22 *40:24 1.89 
5 *40:24 *40:30 2.19 
6 *40:30 *50:A 10.83 
7 *40:30 *57:A 3.6 
8 *40:24 *56:A1 8.31 
9 *40:22 *62:A2 4.5675 
10 *40:16 *40:80 5.295 
11 *40:80 *49:A1 1.6 
12 *40:80 *77:A 4.12 
13 *40:8 *48:A1 2.77 
*END

*D_NET *41 0.00421702
*CONN
*I *62:A3 I *D sky130_fd_sc_hd__o31ai_1
*I *54:A1 I *D sky130_fd_sc_hd__a21o_1
*I *78:A I *D sky130_fd_sc_hd__buf_2
*I *56:A2 I *D sky130_fd_sc_hd__a21o_1
*I *57:B I *D sky130_fd_sc_hd__nand3_1
*I *50:B I *D sky130_fd_sc_hd__xor2_1
*I *68:Q O *D sky130_fd_sc_hd__dfxtp_1
*CAP
1 *62:A3 1.52336e-05
2 *54:A1 0.000238935
3 *78:A 0.000190852
4 *56:A2 1.90984e-05
5 *57:B 8.92937e-05
6 *50:B 0.000108731
7 *68:Q 0
8 *41:66 0.000359664
9 *41:44 0.000448329
10 *41:38 0.000424687
11 *41:23 0.000221766
12 *41:4 0.00016039
13 *56:A2 *42:22 4.00541e-06
14 *57:B *57:C 3.72916e-05
15 *78:A *42:12 2.05498e-05
16 *78:A *42:22 0.000184068
17 *41:44 *42:22 4.36241e-05
18 *41:44 *42:26 7.35813e-05
19 *46:A *50:B 0.000174891
20 *46:A *54:A1 0
21 *50:A *50:B 0.000163204
22 *51:A *50:B 5.83121e-06
23 *51:A *41:23 6.97118e-05
24 *51:B *50:B 3.05646e-05
25 *51:B *57:B 3.05238e-05
26 *51:B *41:38 9.3062e-06
27 *52:A *57:B 5.22918e-05
28 *52:A *41:23 2.66586e-05
29 *53:A *57:B 7.5416e-05
30 *53:A *41:38 8.53113e-06
31 *54:B1 *54:A1 5.16418e-05
32 *55:A3 *50:B 0
33 *55:B1 *54:A1 0
34 *56:A1 *57:B 2.65814e-06
35 *56:A1 *41:44 4.77857e-05
36 *58:B *57:B 3.26889e-05
37 *59:A *57:B 1.32843e-05
38 *59:A *41:44 0.000114424
39 *59:B *41:44 4.82863e-05
40 *61:A2 *41:44 8.8266e-05
41 *61:B1 *54:A1 0
42 *62:A1 *54:A1 0
43 *62:A1 *41:38 0
44 *62:A1 *41:66 5.83121e-06
45 *62:A2 *62:A3 3.83041e-05
46 *62:A2 *41:44 3.4383e-05
47 *62:A2 *41:66 3.08098e-05
48 *64:A2 *54:A1 0
49 *65:C *54:A1 5.84989e-05
50 *66:A3 *54:A1 2.15594e-05
51 *69:D *41:44 3.0807e-05
52 *71:A *54:A1 0
53 *72:A *54:A1 4.27658e-05
54 *72:A *62:A3 0
55 *72:A *41:66 0
56 *15:10 *54:A1 0
57 *16:8 *54:A1 0
58 *17:10 *57:B 7.68414e-06
59 *20:12 *50:B 4.43871e-06
60 *30:8 *54:A1 2.54692e-05
61 *39:19 *50:B 2.91022e-05
62 *39:23 *50:B 7.5416e-05
63 *39:23 *41:38 0
64 *39:49 *50:B 3.64998e-06
65 *39:49 *57:B 0
66 *39:49 *41:23 2.53006e-05
67 *40:22 *54:A1 9.69363e-05
68 *40:22 *41:66 0
69 *40:24 *41:38 0
70 *40:24 *41:66 0
71 *40:30 *41:38 0
*RES
1 *68:Q *41:4 1.6 
2 *41:4 *50:B 9.17 
3 *41:4 *41:23 3.485 
4 *41:23 *57:B 6.315 
5 *41:23 *41:38 1.125 
6 *41:38 *41:44 8.33 
7 *41:44 *56:A2 1.96 
8 *41:44 *78:A 5.86 
9 *41:38 *41:66 4.175 
10 *41:66 *54:A1 10.91 
11 *41:66 *62:A3 2.05 
*END

*D_NET *42 0.0051303
*CONN
*I *79:A I *D sky130_fd_sc_hd__buf_2
*I *56:B1 I *D sky130_fd_sc_hd__a21o_1
*I *63:B I *D sky130_fd_sc_hd__nand2b_1
*I *60:A1 I *D sky130_fd_sc_hd__a21oi_1
*I *57:C I *D sky130_fd_sc_hd__nand3_1
*I *69:Q O *D sky130_fd_sc_hd__dfxtp_1
*CAP
1 *79:A 0
2 *56:B1 0
3 *63:B 0.000383776
4 *60:A1 2.05954e-05
5 *57:C 0.000254072
6 *69:Q 0.000205767
7 *42:41 0.00051487
8 *42:26 0.000387005
9 *42:22 0.000183661
10 *42:12 0.000366993
11 counter[1] *42:12 0
12 *49:A2 *63:B 6.27029e-05
13 *49:B1 *63:B 8.40213e-05
14 *52:A *57:C 9.53428e-06
15 *52:B *57:C 9.72742e-06
16 *55:B1 *63:B 0.000164874
17 *56:A1 *57:C 0
18 *56:A1 *42:22 9.78003e-05
19 *56:A1 *42:26 0.000102616
20 *56:A2 *42:22 4.00541e-06
21 *57:B *57:C 3.72916e-05
22 *58:A *57:C 8.40213e-05
23 *58:B *57:C 5.05521e-05
24 *62:A1 *63:B 0
25 *64:A2 *63:B 0.00015482
26 *69:CLK *63:B 4.78859e-05
27 *69:CLK *42:41 2.97004e-06
28 *69:D *60:A1 2.51172e-05
29 *72:A *60:A1 5.36384e-06
30 *72:A *63:B 0.000107424
31 *73:A *63:B 4.9968e-05
32 *77:A *42:12 0
33 *78:A *42:12 2.05498e-05
34 *78:A *42:22 0.000184068
35 *17:10 *57:C 0.000501617
36 *17:10 *42:41 0.000200648
37 *17:19 *63:B 0.000155169
38 *17:19 *42:41 9.50342e-06
39 *31:12 *63:B 0
40 *37:8 *63:B 0.000238722
41 *37:42 *63:B 8.34281e-06
42 *40:22 *63:B 0.000118081
43 *40:80 *63:B 0.00015896
44 *41:44 *42:22 4.36241e-05
45 *41:44 *42:26 7.35813e-05
*RES
1 *69:Q *42:12 9.065 
2 *42:12 *42:22 4.485 
3 *42:22 *42:26 3.14 
4 *42:26 *57:C 9.315 
5 *42:26 *42:41 2.4 
6 *42:41 *60:A1 4.05 
7 *42:41 *63:B 15.2625 
8 *42:22 *56:B1 1.6 
9 *42:12 *79:A 1.6 
*END

*D_NET *43 0.00244549
*CONN
*I *80:A I *D sky130_fd_sc_hd__buf_2
*I *64:B1 I *D sky130_fd_sc_hd__a31o_1
*I *65:B I *D sky130_fd_sc_hd__nand4_1
*I *70:Q O *D sky130_fd_sc_hd__dfxtp_1
*CAP
1 *80:A 0.000389123
2 *64:B1 4.07322e-05
3 *65:B 0.000181124
4 *70:Q 0
5 *43:8 0.000358901
6 *43:6 0.000526168
7 *47:A *64:B1 4.66108e-05
8 *48:A1 *65:B 0
9 *54:B1 *43:8 0
10 *64:A2 *65:B 1.22762e-05
11 *65:D *64:B1 8.65905e-05
12 *65:D *65:B 0.000121184
13 *66:A2 *43:8 5.55344e-05
14 *66:A3 *65:B 0.000216335
15 *66:A3 *43:8 2.37321e-05
16 *70:D *80:A 0
17 *15:38 *80:A 0
18 *15:38 *43:8 0
19 *18:6 *64:B1 0.000199833
20 *18:15 *65:B 2.43316e-05
21 *31:12 *64:B1 3.38425e-05
22 *31:12 *65:B 0
23 *37:42 *65:B 0.000129176
24 *40:8 *65:B 0
*RES
1 *70:Q *43:6 3.6 
2 *43:6 *43:8 2.655 
3 *43:8 *65:B 8.93625 
4 *43:8 *64:B1 5.43 
5 *43:6 *80:A 10.17 
*END
