*SPEF "ieee 1481-1999"
*DESIGN "counter_dut"
*DATE "10:04:13 Wednesday December 04, 2024"
*VENDOR "The OpenROAD Project"
*PROGRAM "OpenROAD"
*VERSION "edf00dff99f6c40d67a30c0e22a8191c5d2ed9d6"
*DESIGN_FLOW "NAME_SCOPE LOCAL" "PIN_CAP NONE"
*DIVIDER /
*DELIMITER :
*BUS_DELIMITER []
*T_UNIT 1 NS
*C_UNIT 1 PF
*R_UNIT 1 OHM
*L_UNIT 1 HENRY

*NAME_MAP
*1 clock
*2 counter[0]
*3 counter[1]
*4 counter[2]
*5 counter[3]
*6 enable
*7 reset
*8 up_down
*11 _00_
*12 _01_
*13 _02_
*14 _03_
*15 _04_
*16 _05_
*17 _06_
*18 _07_
*19 _08_
*20 _09_
*21 _10_
*22 _11_
*23 _12_
*24 _13_
*25 _14_
*26 _15_
*27 _16_
*28 _17_
*29 _18_
*30 _19_
*31 _20_
*32 _21_
*33 _22_
*34 net1
*35 net2
*36 net3
*37 net4
*38 net5
*39 net6
*40 net7
*41 net8
*42 _23_
*43 _24_
*44 _25_
*45 _26_
*46 _27_
*47 _28_
*48 _29_
*49 _30_
*50 _31_
*51 _32_
*52 _33_
*53 _34_
*54 _35_
*55 _36_
*56 _37_
*57 _38_
*58 _39_
*59 _40_
*60 _41_
*61 _42_
*62 _43_
*63 _44_
*64 _45_
*65 _46_
*66 _47_
*67 _48_
*68 _49_
*69 input1
*70 input2
*71 input3
*72 input4
*73 output5
*74 output6
*75 output7
*76 output8

*PORTS
clock I
counter[0] O
counter[1] O
counter[2] O
counter[3] O
enable I
reset I
up_down I

*D_NET *1 0.000546708
*CONN
*P clock I
*I *69:A I *D sky130_fd_sc_hd__buf_1
*CAP
1 clock 0.00015794
2 *69:A 0.00015794
3 *69:A *61:A_N 0
4 *69:A *66:CLK 0.00012022
5 *69:A *70:A 5.40137e-05
6 *69:A *72:A 5.65933e-05
*RES
1 clock *69:A 19.7281 
*END

*D_NET *2 0.000411573
*CONN
*P counter[0] O
*I *73:X O *D sky130_fd_sc_hd__buf_2
*CAP
1 counter[0] 0.00017392
2 *73:X 0.00017392
3 counter[0] counter[1] 6.37342e-05
*RES
1 *73:X counter[0] 18.5859 
*END

*D_NET *3 0.000423252
*CONN
*P counter[1] O
*I *74:X O *D sky130_fd_sc_hd__buf_2
*CAP
1 counter[1] 0.00012736
2 *74:X 0.00012736
3 counter[1] counter[2] 6.37342e-05
4 counter[1] *75:A 4.10642e-05
5 counter[0] counter[1] 6.37342e-05
*RES
1 *74:X counter[1] 18.5859 
*END

*D_NET *4 0.000381891
*CONN
*P counter[2] O
*I *75:X O *D sky130_fd_sc_hd__buf_2
*CAP
1 counter[2] 0.000159078
2 *75:X 0.000159078
3 counter[1] counter[2] 6.37342e-05
*RES
1 *75:X counter[2] 18.2823 
*END

*D_NET *5 0.000395169
*CONN
*P counter[3] O
*I *76:X O *D sky130_fd_sc_hd__buf_2
*CAP
1 counter[3] 0.000170577
2 *76:X 0.000170577
3 counter[3] *70:A 0
4 counter[3] *71:A 5.40137e-05
*RES
1 *76:X counter[3] 17.9787 
*END

*D_NET *6 0.000649535
*CONN
*P enable I
*I *70:A I *D sky130_fd_sc_hd__buf_1
*CAP
1 enable 0.000248405
2 *70:A 0.000248405
3 *70:A *71:A 6.68437e-05
4 *70:A *34:27 0
5 *70:A *36:8 3.18676e-05
6 *70:A *41:10 0
7 counter[3] *70:A 0
8 *69:A *70:A 5.40137e-05
*RES
1 enable *70:A 20.443 
*END

*D_NET *7 0.000442016
*CONN
*P reset I
*I *71:A I *D sky130_fd_sc_hd__buf_1
*CAP
1 reset 0.000160579
2 *71:A 0.000160579
3 *71:A *34:27 0
4 *71:A *35:12 0
5 counter[3] *71:A 5.40137e-05
6 *70:A *71:A 6.68437e-05
*RES
1 reset *71:A 19.1209 
*END

*D_NET *8 0.000288416
*CONN
*P up_down I
*I *72:A I *D sky130_fd_sc_hd__buf_1
*CAP
1 up_down 0.000115911
2 *72:A 0.000115911
3 *69:A *72:A 5.65933e-05
*RES
1 up_down *72:A 17.9067 
*END

*D_NET *11 0.000313123
*CONN
*I *65:D I *D sky130_fd_sc_hd__dfxtp_1
*I *47:Y O *D sky130_fd_sc_hd__o21ai_1
*CAP
1 *65:D 9.84186e-05
2 *47:Y 9.84186e-05
3 *65:D *67:CLK 0.000116286
*RES
1 *47:Y *65:D 29.7473 
*END

*D_NET *12 0.000576753
*CONN
*I *66:D I *D sky130_fd_sc_hd__dfxtp_1
*I *53:X O *D sky130_fd_sc_hd__a31o_1
*CAP
1 *66:D 0.000151545
2 *53:X 0.000151545
3 *66:D *53:A3 5.99221e-05
4 *66:D *60:A1 0
5 *66:D *61:A_N 0
6 *66:D *31:10 0
7 *66:D *34:27 7.08853e-05
8 *66:D *37:8 0
9 *66:D *37:38 0.000142856
*RES
1 *53:X *66:D 31.5688 
*END

*D_NET *13 0.000367438
*CONN
*I *67:D I *D sky130_fd_sc_hd__dfxtp_1
*I *59:Y O *D sky130_fd_sc_hd__o21ai_1
*CAP
1 *67:D 6.97029e-05
2 *59:Y 6.97029e-05
3 *67:D *59:B1 5.66455e-05
4 *67:D *67:CLK 8.71067e-05
5 *67:D *40:8 8.42801e-05
*RES
1 *59:Y *67:D 29.7473 
*END

*D_NET *14 0.00054576
*CONN
*I *68:D I *D sky130_fd_sc_hd__dfxtp_1
*I *64:X O *D sky130_fd_sc_hd__a31o_1
*CAP
1 *68:D 9.22648e-05
2 *64:X 9.22648e-05
3 *68:D *64:A2 5.69186e-06
4 *68:D *64:A3 5.99125e-05
5 *68:D *34:27 0.000295626
6 *68:D *36:8 0
*RES
1 *64:X *68:D 30.7473 
*END

*D_NET *15 0.00228231
*CONN
*I *43:B I *D sky130_fd_sc_hd__nand2_1
*I *53:A2 I *D sky130_fd_sc_hd__a31o_1
*I *44:A I *D sky130_fd_sc_hd__nor2_1
*I *64:A1 I *D sky130_fd_sc_hd__a31o_1
*I *42:Y O *D sky130_fd_sc_hd__inv_2
*CAP
1 *43:B 1.49402e-05
2 *53:A2 8.10886e-05
3 *44:A 7.94462e-05
4 *64:A1 8.43817e-05
5 *42:Y 2.68864e-05
6 *15:25 0.000250253
7 *15:10 0.000259115
8 *15:6 0.000126842
9 *43:B *42:A 1.04232e-05
10 *43:B *45:B 3.5619e-06
11 *44:A *52:A1 0.000132297
12 *44:A *53:A1 7.83587e-05
13 *44:A *64:B1 0
14 *44:A *30:12 0
15 *44:A *40:35 4.00025e-05
16 *53:A2 *53:A1 2.28499e-05
17 *53:A2 *53:B1 0.000140933
18 *53:A2 *61:B 6.57815e-05
19 *53:A2 *17:21 0
20 *53:A2 *31:10 0.000139913
21 *53:A2 *37:38 0
22 *64:A1 *64:A2 0.000161379
23 *64:A1 *36:8 0.000160297
24 *15:6 *42:A 2.44318e-05
25 *15:6 *16:6 1.74352e-05
26 *15:6 *34:31 1.1979e-05
27 *15:10 *42:A 8.07313e-05
28 *15:10 *45:B 2.50075e-05
29 *15:10 *64:A2 1.01249e-05
30 *15:10 *34:31 1.67369e-05
31 *15:10 *36:8 2.07168e-05
32 *15:25 *53:A1 0.000166983
33 *15:25 *40:35 2.94103e-05
*RES
1 *42:Y *15:6 10.2464 
2 *15:6 *15:10 2.5 
3 *15:10 *64:A1 12.0321 
4 *15:10 *15:25 6.75 
5 *15:25 *44:A 16.3536 
6 *15:25 *53:A2 16.3893 
7 *15:6 *43:B 9.72857 
*END

*D_NET *16 0.00173344
*CONN
*I *47:A2 I *D sky130_fd_sc_hd__o21ai_1
*I *59:A1 I *D sky130_fd_sc_hd__o21ai_1
*I *43:Y O *D sky130_fd_sc_hd__nand2_1
*CAP
1 *47:A2 1.31011e-05
2 *59:A1 8.02964e-05
3 *43:Y 0.000116894
4 *16:6 0.000210291
5 *47:A2 *46:A2 4.27935e-05
6 *47:A2 *38:25 1.56e-05
7 *47:A2 *38:31 6.05161e-06
8 *59:A1 *46:B1 6.49413e-05
9 *59:A1 *59:B1 0.000229443
10 *59:A1 *38:31 0.000349769
11 *16:6 *42:A 0.00010096
12 *16:6 *46:A2 0.0001399
13 *16:6 *18:6 0.000320024
14 *16:6 *34:31 0
15 *16:6 *38:31 2.59355e-05
16 *15:6 *16:6 1.74352e-05
*RES
1 *43:Y *16:6 13.5321 
2 *16:6 *59:A1 22.675 
3 *16:6 *47:A2 9.83571 
*END

*D_NET *17 0.00302768
*CONN
*I *46:B1 I *D sky130_fd_sc_hd__a21oi_1
*I *58:B1 I *D sky130_fd_sc_hd__a21oi_1
*I *52:B1 I *D sky130_fd_sc_hd__a21o_1
*I *64:B1 I *D sky130_fd_sc_hd__a31o_1
*I *44:Y O *D sky130_fd_sc_hd__nor2_1
*CAP
1 *46:B1 0.000171532
2 *58:B1 0
3 *52:B1 5.73011e-05
4 *64:B1 0.000179597
5 *44:Y 0
6 *17:34 0.00032288
7 *17:21 0.000377254
8 *17:4 0.000348201
9 *46:B1 *46:A2 1.93804e-05
10 *46:B1 *47:B1 5.71472e-05
11 *46:B1 *59:B1 1.02504e-05
12 *46:B1 *67:CLK 1.33343e-05
13 *46:B1 *18:8 0
14 *46:B1 *38:25 9.90431e-05
15 *46:B1 *38:31 1.69115e-05
16 *46:B1 *40:8 1.02936e-05
17 *52:B1 *52:A1 9.60939e-05
18 *52:B1 *52:A2 5.71472e-05
19 *52:B1 *53:A1 5.7661e-06
20 *52:B1 *61:B 1.40306e-05
21 *52:B1 *40:18 2.07491e-05
22 *64:B1 *44:B 5.33433e-05
23 *64:B1 *53:A1 7.02501e-05
24 *64:B1 *30:12 0.000186105
25 *64:B1 *31:10 0.000153054
26 *64:B1 *37:38 6.05161e-06
27 *64:B1 *38:50 2.51343e-06
28 *64:B1 *39:8 2.87555e-06
29 *17:21 *52:A1 3.14163e-05
30 *17:21 *53:A1 4.0342e-06
31 *17:21 *38:50 6.78215e-05
32 *17:34 *46:A2 0
33 *17:34 *52:A2 0.000229456
34 *17:34 *58:A2 4.38128e-05
35 *17:34 *67:CLK 0
36 *17:34 *18:8 0
37 *17:34 *38:50 0
38 *17:34 *40:8 9.41642e-05
39 *17:34 *40:18 0.000140933
40 *44:A *64:B1 0
41 *53:A2 *17:21 0
42 *59:A1 *46:B1 6.49413e-05
*RES
1 *44:Y *17:4 9.3 
2 *17:4 *64:B1 23.7286 
3 *17:4 *17:21 3.92857 
4 *17:21 *52:B1 11.4964 
5 *17:21 *17:34 4.25 
6 *17:34 *58:B1 9.3 
7 *17:34 *46:B1 22.8893 
*END

*D_NET *18 0.00216237
*CONN
*I *46:A2 I *D sky130_fd_sc_hd__a21oi_1
*I *58:A2 I *D sky130_fd_sc_hd__a21oi_1
*I *52:A2 I *D sky130_fd_sc_hd__a21o_1
*I *45:Y O *D sky130_fd_sc_hd__nor2_1
*CAP
1 *46:A2 0.000218681
2 *58:A2 1.64039e-05
3 *52:A2 5.64204e-05
4 *45:Y 7.60881e-05
5 *18:8 0.000174492
6 *18:6 0.000396436
7 *46:A2 *47:B1 4.55687e-05
8 *46:A2 *67:CLK 0
9 *46:A2 *38:21 1.15281e-05
10 *46:A2 *38:25 3.07347e-05
11 *46:A2 *40:8 0
12 *52:A2 *40:18 8.90199e-05
13 *18:6 *42:A 4.14279e-05
14 *18:6 *61:B 1.92789e-05
15 *18:6 *36:8 1.33343e-05
16 *18:6 *40:18 0.000120439
17 *46:B1 *46:A2 1.93804e-05
18 *46:B1 *18:8 0
19 *47:A2 *46:A2 4.27935e-05
20 *52:B1 *52:A2 5.71472e-05
21 *16:6 *46:A2 0.0001399
22 *16:6 *18:6 0.000320024
23 *17:34 *46:A2 0
24 *17:34 *52:A2 0.000229456
25 *17:34 *58:A2 4.38128e-05
26 *17:34 *18:8 0
*RES
1 *45:Y *18:6 13.1214 
2 *18:6 *18:8 1.94643 
3 *18:8 *52:A2 11.8893 
4 *18:8 *58:A2 9.83571 
5 *18:6 *46:A2 14.5679 
*END

*D_NET *19 0.000150663
*CONN
*I *47:B1 I *D sky130_fd_sc_hd__o21ai_1
*I *46:Y O *D sky130_fd_sc_hd__a21oi_1
*CAP
1 *47:B1 2.39734e-05
2 *46:Y 2.39734e-05
3 *46:A2 *47:B1 4.55687e-05
4 *46:B1 *47:B1 5.71472e-05
*RES
1 *46:Y *47:B1 19.5643 
*END

*D_NET *20 0.000657909
*CONN
*I *50:B I *D sky130_fd_sc_hd__nand2_1
*I *49:B I *D sky130_fd_sc_hd__or2_1
*I *48:X O *D sky130_fd_sc_hd__xor2_1
*CAP
1 *50:B 0.000125296
2 *49:B 0
3 *48:X 4.81062e-05
4 *20:8 0.000173402
5 *50:B *48:B 4.16899e-05
6 *50:B *50:A 5.16637e-05
7 *50:B *51:B 5.52238e-05
8 *50:B *60:B1 6.28247e-05
9 *50:B *21:14 5.52302e-05
10 *20:8 *48:B 2.67377e-05
11 *20:8 *50:A 1.3701e-05
12 *20:8 *60:A3 0
13 *20:8 *60:B1 4.0342e-06
14 *20:8 *38:58 0
*RES
1 *48:X *20:8 10.5679 
2 *20:8 *49:B 9.3 
3 *20:8 *50:B 12.7286 
*END

*D_NET *21 0.00145369
*CONN
*I *57:A I *D sky130_fd_sc_hd__xnor2_1
*I *51:A I *D sky130_fd_sc_hd__nand2_1
*I *49:X O *D sky130_fd_sc_hd__or2_1
*CAP
1 *57:A 0.000134578
2 *51:A 0
3 *49:X 7.39088e-05
4 *21:14 0.000208486
5 *57:A *54:B1 8.47274e-05
6 *57:A *56:B 1.74352e-05
7 *57:A *60:A3 0.000192219
8 *57:A *60:B1 5.77436e-05
9 *57:A *39:47 0.000215102
10 *21:14 *50:A 5.71472e-05
11 *21:14 *51:B 0.000130583
12 *21:14 *60:B1 2.59355e-05
13 *21:14 *37:44 0.000177948
14 *21:14 *38:58 2.26424e-05
15 *50:B *21:14 5.52302e-05
*RES
1 *49:X *21:14 21.6214 
2 *21:14 *51:A 9.3 
3 *21:14 *57:A 13.9786 
*END

*D_NET *22 0.000432202
*CONN
*I *51:B I *D sky130_fd_sc_hd__nand2_1
*I *50:Y O *D sky130_fd_sc_hd__nand2_1
*CAP
1 *51:B 4.99948e-05
2 *50:Y 4.99948e-05
3 *51:B *60:B1 1.58163e-05
4 *51:B *38:58 0.00013059
5 *50:B *51:B 5.52238e-05
6 *21:14 *51:B 0.000130583
*RES
1 *50:Y *51:B 29.7786 
*END

*D_NET *23 0.000933784
*CONN
*I *53:A3 I *D sky130_fd_sc_hd__a31o_1
*I *51:Y O *D sky130_fd_sc_hd__nand2_1
*CAP
1 *53:A3 0.000186392
2 *51:Y 0.000186392
3 *53:A3 *44:B 0
4 *53:A3 *60:A3 0.000146881
5 *53:A3 *30:12 0.00032974
6 *53:A3 *34:27 1.91512e-05
7 *53:A3 *37:21 0
8 *53:A3 *37:38 0
9 *53:A3 *39:8 5.30637e-06
10 *66:D *53:A3 5.99221e-05
*RES
1 *51:Y *53:A3 33.4393 
*END

*D_NET *24 0.00033504
*CONN
*I *53:B1 I *D sky130_fd_sc_hd__a31o_1
*I *52:X O *D sky130_fd_sc_hd__a21o_1
*CAP
1 *53:B1 2.65875e-05
2 *52:X 2.65875e-05
3 *53:B1 *53:A1 0.000140933
4 *53:A2 *53:B1 0.000140933
*RES
1 *52:X *53:B1 19.9571 
*END

*D_NET *25 0.000321546
*CONN
*I *56:A I *D sky130_fd_sc_hd__nand2_1
*I *54:X O *D sky130_fd_sc_hd__a21o_1
*CAP
1 *56:A 0.00015787
2 *54:X 0.00015787
3 *56:A *54:A1 5.80706e-06
4 *56:A *54:B1 0
5 *56:A *56:B 0
6 *56:A *57:B 0
*RES
1 *54:X *56:A 30.6 
*END

*D_NET *26 0.00107069
*CONN
*I *56:B I *D sky130_fd_sc_hd__nand2_1
*I *60:B1 I *D sky130_fd_sc_hd__o31ai_1
*I *55:Y O *D sky130_fd_sc_hd__nand3_1
*CAP
1 *56:B 0.000129867
2 *60:B1 0.000168234
3 *55:Y 0
4 *26:4 0.000298101
5 *56:B *48:B 0
6 *56:B *54:B1 0.00014285
7 *56:B *57:B 8.32171e-05
8 *60:B1 *60:A3 6.46302e-05
9 *50:B *60:B1 6.28247e-05
10 *51:B *60:B1 1.58163e-05
11 *56:A *56:B 0
12 *57:A *56:B 1.74352e-05
13 *57:A *60:B1 5.77436e-05
14 *20:8 *60:B1 4.0342e-06
15 *21:14 *60:B1 2.59355e-05
*RES
1 *55:Y *26:4 9.3 
2 *26:4 *60:B1 13.5679 
3 *26:4 *56:B 21.7107 
*END

*D_NET *27 0.000263349
*CONN
*I *57:B I *D sky130_fd_sc_hd__xnor2_1
*I *56:Y O *D sky130_fd_sc_hd__nand2_1
*CAP
1 *57:B 9.00659e-05
2 *56:Y 9.00659e-05
3 *57:B *48:B 0
4 *57:B *54:A1 0
5 *57:B *40:35 0
6 *56:A *57:B 0
7 *56:B *57:B 8.32171e-05
*RES
1 *56:Y *57:B 29.5464 
*END

*D_NET *28 0.000878705
*CONN
*I *59:A2 I *D sky130_fd_sc_hd__o21ai_1
*I *57:Y O *D sky130_fd_sc_hd__xnor2_1
*CAP
1 *59:A2 0.000138769
2 *57:Y 0.000138769
3 *59:A2 *59:B1 5.62995e-05
4 *59:A2 *74:A 8.63635e-05
5 *59:A2 *38:50 5.37963e-05
6 *59:A2 *39:47 0.000404707
7 *59:A2 *40:8 0
*RES
1 *57:Y *59:A2 24.8143 
*END

*D_NET *29 0.000684384
*CONN
*I *59:B1 I *D sky130_fd_sc_hd__o21ai_1
*I *58:Y O *D sky130_fd_sc_hd__a21oi_1
*CAP
1 *59:B1 0.000158821
2 *58:Y 0.000158821
3 *59:B1 *67:CLK 0
4 *59:B1 *38:31 1.41029e-05
5 *59:B1 *40:8 0
6 *46:B1 *59:B1 1.02504e-05
7 *59:A1 *59:B1 0.000229443
8 *59:A2 *59:B1 5.62995e-05
9 *67:D *59:B1 5.66455e-05
*RES
1 *58:Y *59:B1 31.7071 
*END

*D_NET *30 0.00240013
*CONN
*I *63:C I *D sky130_fd_sc_hd__nand4_1
*I *62:A2 I *D sky130_fd_sc_hd__a31o_1
*I *60:Y O *D sky130_fd_sc_hd__o31ai_1
*CAP
1 *63:C 6.03191e-05
2 *62:A2 0.000165166
3 *60:Y 0.000315643
4 *30:12 0.000541128
5 *62:A2 *62:A3 0.000115863
6 *62:A2 *62:B1 6.10501e-05
7 *62:A2 *34:27 4.88631e-05
8 *62:A2 *34:31 4.73436e-05
9 *62:A2 *35:23 2.26761e-05
10 *63:C *63:D 8.48705e-05
11 *63:C *64:A3 4.23086e-05
12 *63:C *35:12 0
13 *30:12 *60:A1 0
14 *30:12 *63:D 1.88482e-05
15 *30:12 *64:A3 0.000140311
16 *30:12 *31:10 0.000120929
17 *30:12 *34:27 0
18 *30:12 *37:44 9.89637e-05
19 *44:A *30:12 0
20 *53:A3 *30:12 0.00032974
21 *64:B1 *30:12 0.000186105
*RES
1 *60:Y *30:12 24.6036 
2 *30:12 *62:A2 18.4786 
3 *30:12 *63:C 15.7464 
*END

*D_NET *31 0.0021913
*CONN
*I *62:A3 I *D sky130_fd_sc_hd__a31o_1
*I *63:D I *D sky130_fd_sc_hd__nand4_1
*I *61:Y O *D sky130_fd_sc_hd__nand2b_1
*CAP
1 *62:A3 0.000111811
2 *63:D 8.2173e-05
3 *61:Y 0.00023953
4 *31:10 0.000433515
5 *62:A3 *34:31 3.4879e-05
6 *62:A3 *35:23 2.09826e-05
7 *62:A3 *35:27 0
8 *63:D *62:B1 2.89016e-05
9 *63:D *35:23 0.000110046
10 *31:10 *53:A1 9.34004e-05
11 *31:10 *61:B 0.000310292
12 *31:10 *64:A2 4.81157e-05
13 *31:10 *34:27 2.51343e-06
14 *31:10 *35:23 3.62475e-05
15 *31:10 *35:27 5.41797e-06
16 *31:10 *37:38 0
17 *53:A2 *31:10 0.000139913
18 *62:A2 *62:A3 0.000115863
19 *63:C *63:D 8.48705e-05
20 *64:B1 *31:10 0.000153054
21 *66:D *31:10 0
22 *30:12 *63:D 1.88482e-05
23 *30:12 *31:10 0.000120929
*RES
1 *61:Y *31:10 21.6304 
2 *31:10 *63:D 16.7375 
3 *31:10 *62:A3 16.3982 
*END

*D_NET *32 0.000639
*CONN
*I *64:A2 I *D sky130_fd_sc_hd__a31o_1
*I *62:X O *D sky130_fd_sc_hd__a31o_1
*CAP
1 *64:A2 0.000154691
2 *62:X 0.000154691
3 *64:A2 *34:27 0
4 *64:A2 *34:31 5.39166e-06
5 *64:A2 *35:23 8.49318e-05
6 *64:A2 *36:8 1.39841e-05
7 *64:A1 *64:A2 0.000161379
8 *68:D *64:A2 5.69186e-06
9 *15:10 *64:A2 1.01249e-05
10 *31:10 *64:A2 4.81157e-05
*RES
1 *62:X *64:A2 31.6714 
*END

*D_NET *33 0.000494894
*CONN
*I *64:A3 I *D sky130_fd_sc_hd__a31o_1
*I *63:Y O *D sky130_fd_sc_hd__nand4_1
*CAP
1 *64:A3 0.000112244
2 *63:Y 0.000112244
3 *64:A3 *34:27 2.78729e-05
4 *64:A3 *35:12 0
5 *63:C *64:A3 4.23086e-05
6 *68:D *64:A3 5.99125e-05
7 *30:12 *64:A3 0.000140311
*RES
1 *63:Y *64:A3 31.6714 
*END

*D_NET *34 0.00406668
*CONN
*I *68:CLK I *D sky130_fd_sc_hd__dfxtp_1
*I *65:CLK I *D sky130_fd_sc_hd__dfxtp_1
*I *67:CLK I *D sky130_fd_sc_hd__dfxtp_1
*I *66:CLK I *D sky130_fd_sc_hd__dfxtp_1
*I *69:X O *D sky130_fd_sc_hd__buf_1
*CAP
1 *68:CLK 0
2 *65:CLK 2.23854e-05
3 *67:CLK 0.000465036
4 *66:CLK 9.18612e-05
5 *69:X 0
6 *34:31 0.000847997
7 *34:27 0.000906843
8 *34:4 0.000638129
9 *66:CLK *61:A_N 0
10 *66:CLK *36:8 0
11 *66:CLK *37:21 0
12 *67:CLK *38:21 2.51343e-06
13 *67:CLK *38:25 5.37963e-05
14 *67:CLK *40:8 5.55142e-05
15 *34:27 *61:A_N 0
16 *34:27 *61:B 2.34767e-05
17 *34:27 *35:12 0
18 *34:27 *35:23 0
19 *34:27 *36:8 0
20 *34:31 *62:B1 3.05446e-05
21 *34:31 *38:25 1.03968e-05
22 *34:31 *38:31 0
23 *46:A2 *67:CLK 0
24 *46:B1 *67:CLK 1.33343e-05
25 *53:A3 *34:27 1.91512e-05
26 *59:B1 *67:CLK 0
27 *62:A2 *34:27 4.88631e-05
28 *62:A2 *34:31 4.73436e-05
29 *62:A3 *34:31 3.4879e-05
30 *64:A2 *34:27 0
31 *64:A2 *34:31 5.39166e-06
32 *64:A3 *34:27 2.78729e-05
33 *65:D *67:CLK 0.000116286
34 *66:D *34:27 7.08853e-05
35 *67:D *67:CLK 8.71067e-05
36 *68:D *34:27 0.000295626
37 *69:A *66:CLK 0.00012022
38 *70:A *34:27 0
39 *71:A *34:27 0
40 *15:6 *34:31 1.1979e-05
41 *15:10 *34:31 1.67369e-05
42 *16:6 *34:31 0
43 *17:34 *67:CLK 0
44 *30:12 *34:27 0
45 *31:10 *34:27 2.51343e-06
*RES
1 *69:X *34:4 9.3 
2 *34:4 *66:CLK 20.4786 
3 *34:4 *34:27 21 
4 *34:27 *34:31 7.53571 
5 *34:31 *67:CLK 27.3714 
6 *34:31 *65:CLK 9.72857 
7 *34:27 *68:CLK 9.3 
*END

*D_NET *35 0.00337564
*CONN
*I *62:A1 I *D sky130_fd_sc_hd__a31o_1
*I *43:A I *D sky130_fd_sc_hd__nand2_1
*I *45:A I *D sky130_fd_sc_hd__nor2_1
*I *53:A1 I *D sky130_fd_sc_hd__a31o_1
*I *63:A I *D sky130_fd_sc_hd__nand4_1
*I *70:X O *D sky130_fd_sc_hd__buf_1
*CAP
1 *62:A1 0.000106066
2 *43:A 7.97783e-06
3 *45:A 0
4 *53:A1 0.000212973
5 *63:A 0
6 *70:X 0.000299238
7 *35:51 0.000192334
8 *35:27 0.000247492
9 *35:23 0.000406862
10 *35:12 0.000593291
11 *43:A *38:31 0
12 *53:A1 *61:B 0
13 *53:A1 *37:38 0
14 *35:12 *41:19 0.000274294
15 *35:23 *62:B1 7.1274e-05
16 *35:23 *41:19 0.00010096
17 *44:A *53:A1 7.83587e-05
18 *52:B1 *53:A1 5.7661e-06
19 *53:A2 *53:A1 2.28499e-05
20 *53:B1 *53:A1 0.000140933
21 *62:A2 *35:23 2.26761e-05
22 *62:A3 *35:23 2.09826e-05
23 *62:A3 *35:27 0
24 *63:C *35:12 0
25 *63:D *35:23 0.000110046
26 *64:A2 *35:23 8.49318e-05
27 *64:A3 *35:12 0
28 *64:B1 *53:A1 7.02501e-05
29 *71:A *35:12 0
30 *15:25 *53:A1 0.000166983
31 *17:21 *53:A1 4.0342e-06
32 *31:10 *53:A1 9.34004e-05
33 *31:10 *35:23 3.62475e-05
34 *31:10 *35:27 5.41797e-06
35 *34:27 *35:12 0
36 *34:27 *35:23 0
*RES
1 *70:X *35:12 24.9607 
2 *35:12 *63:A 9.3 
3 *35:12 *35:23 12.4375 
4 *35:23 *35:27 0.8125 
5 *35:27 *53:A1 19.8893 
6 *35:27 *45:A 13.8 
7 *35:23 *35:51 0.946429 
8 *35:51 *43:A 14.0768 
9 *35:51 *62:A1 16.4339 
*END

*D_NET *36 0.00147271
*CONN
*I *42:A I *D sky130_fd_sc_hd__inv_2
*I *45:B I *D sky130_fd_sc_hd__nor2_1
*I *71:X O *D sky130_fd_sc_hd__buf_1
*CAP
1 *42:A 3.84266e-05
2 *45:B 1.25374e-05
3 *71:X 0.000350827
4 *36:8 0.000401791
5 *36:8 *61:B 0.000142381
6 *43:B *42:A 1.04232e-05
7 *43:B *45:B 3.5619e-06
8 *64:A1 *36:8 0.000160297
9 *64:A2 *36:8 1.39841e-05
10 *66:CLK *36:8 0
11 *68:D *36:8 0
12 *70:A *36:8 3.18676e-05
13 *15:6 *42:A 2.44318e-05
14 *15:10 *42:A 8.07313e-05
15 *15:10 *45:B 2.50075e-05
16 *15:10 *36:8 2.07168e-05
17 *16:6 *42:A 0.00010096
18 *18:6 *42:A 4.14279e-05
19 *18:6 *36:8 1.33343e-05
20 *34:27 *36:8 0
*RES
1 *71:X *36:8 17.2464 
2 *36:8 *45:B 9.72857 
3 *36:8 *42:A 11.4964 
*END

*D_NET *37 0.00281414
*CONN
*I *44:B I *D sky130_fd_sc_hd__nor2_1
*I *49:A I *D sky130_fd_sc_hd__or2_1
*I *50:A I *D sky130_fd_sc_hd__nand2_1
*I *61:A_N I *D sky130_fd_sc_hd__nand2b_1
*I *60:A1 I *D sky130_fd_sc_hd__o31ai_1
*I *72:X O *D sky130_fd_sc_hd__buf_1
*CAP
1 *44:B 2.63625e-05
2 *49:A 0
3 *50:A 4.38135e-05
4 *61:A_N 0.000105772
5 *60:A1 0.000141975
6 *72:X 7.41374e-05
7 *37:44 0.000268357
8 *37:38 0.000491385
9 *37:21 0.000449112
10 *37:8 0.000318973
11 *44:B *39:8 2.27416e-05
12 *50:A *48:B 0.00014285
13 *60:A1 *48:B 0
14 *60:A1 *60:A2 6.71705e-05
15 *60:A1 *38:58 0
16 *37:38 *60:A2 0
17 *37:44 *52:A1 0
18 *37:44 *60:A2 0
19 *37:44 *38:50 5.982e-05
20 *50:B *50:A 5.16637e-05
21 *53:A1 *37:38 0
22 *53:A2 *37:38 0
23 *53:A3 *44:B 0
24 *53:A3 *37:21 0
25 *53:A3 *37:38 0
26 *64:B1 *44:B 5.33433e-05
27 *64:B1 *37:38 6.05161e-06
28 *66:CLK *61:A_N 0
29 *66:CLK *37:21 0
30 *66:D *60:A1 0
31 *66:D *61:A_N 0
32 *66:D *37:8 0
33 *66:D *37:38 0.000142856
34 *69:A *61:A_N 0
35 *20:8 *50:A 1.3701e-05
36 *21:14 *50:A 5.71472e-05
37 *21:14 *37:44 0.000177948
38 *30:12 *60:A1 0
39 *30:12 *37:44 9.89637e-05
40 *31:10 *37:38 0
41 *34:27 *61:A_N 0
*RES
1 *72:X *37:8 15.1571 
2 *37:8 *60:A1 16.6036 
3 *37:8 *37:21 2.09821 
4 *37:21 *61:A_N 15.8982 
5 *37:21 *37:38 9.13393 
6 *37:38 *37:44 13.9821 
7 *37:44 *50:A 11.5143 
8 *37:44 *49:A 9.3 
9 *37:38 *44:B 10.2464 
*END

*D_NET *38 0.00545785
*CONN
*I *46:A1 I *D sky130_fd_sc_hd__a21oi_1
*I *47:A1 I *D sky130_fd_sc_hd__o21ai_1
*I *55:A I *D sky130_fd_sc_hd__nand3_1
*I *48:A I *D sky130_fd_sc_hd__xor2_1
*I *60:A2 I *D sky130_fd_sc_hd__o31ai_1
*I *54:A1 I *D sky130_fd_sc_hd__a21o_1
*I *73:A I *D sky130_fd_sc_hd__buf_2
*I *65:Q O *D sky130_fd_sc_hd__dfxtp_1
*CAP
1 *46:A1 0
2 *47:A1 0
3 *55:A 0
4 *48:A 0
5 *60:A2 0.000188942
6 *54:A1 0.000219501
7 *73:A 0
8 *65:Q 0.000116727
9 *38:58 0.00049661
10 *38:50 0.000601443
11 *38:31 0.0007521
12 *38:25 0.000338071
13 *38:21 0.000334703
14 *38:12 0.000352182
15 *54:A1 *54:B1 1.24368e-05
16 *54:A1 *39:47 2.47833e-05
17 *54:A1 *40:35 0
18 *60:A2 *48:B 0
19 *38:31 *40:18 4.35048e-05
20 *38:31 *40:35 0
21 *38:50 *48:B 1.02504e-05
22 *38:50 *52:A1 2.24646e-05
23 *38:50 *39:8 5.33005e-05
24 *38:50 *39:10 9.71532e-05
25 *38:50 *39:12 4.56437e-05
26 *38:50 *39:47 3.71441e-05
27 *38:50 *40:18 0
28 *38:58 *48:B 0.000664348
29 *43:A *38:31 0
30 *46:A2 *38:21 1.15281e-05
31 *46:A2 *38:25 3.07347e-05
32 *46:B1 *38:25 9.90431e-05
33 *46:B1 *38:31 1.69115e-05
34 *47:A2 *38:25 1.56e-05
35 *47:A2 *38:31 6.05161e-06
36 *51:B *38:58 0.00013059
37 *56:A *54:A1 5.80706e-06
38 *57:B *54:A1 0
39 *59:A1 *38:31 0.000349769
40 *59:A2 *38:50 5.37963e-05
41 *59:B1 *38:31 1.41029e-05
42 *60:A1 *60:A2 6.71705e-05
43 *60:A1 *38:58 0
44 *64:B1 *38:50 2.51343e-06
45 *67:CLK *38:21 2.51343e-06
46 *67:CLK *38:25 5.37963e-05
47 *16:6 *38:31 2.59355e-05
48 *17:21 *38:50 6.78215e-05
49 *17:34 *38:50 0
50 *20:8 *38:58 0
51 *21:14 *38:58 2.26424e-05
52 *34:31 *38:25 1.03968e-05
53 *34:31 *38:31 0
54 *37:38 *60:A2 0
55 *37:44 *60:A2 0
56 *37:44 *38:50 5.982e-05
*RES
1 *65:Q *38:12 20.4786 
2 *38:12 *73:A 9.3 
3 *38:12 *38:21 4.66071 
4 *38:21 *38:25 3.01786 
5 *38:25 *38:31 10.625 
6 *38:31 *54:A1 17.6036 
7 *38:31 *38:50 16.7143 
8 *38:50 *38:58 12.9286 
9 *38:58 *60:A2 22.0054 
10 *38:58 *48:A 9.3 
11 *38:50 *55:A 13.8 
12 *38:25 *47:A1 9.3 
13 *38:21 *46:A1 9.3 
*END

*D_NET *39 0.00529972
*CONN
*I *52:A1 I *D sky130_fd_sc_hd__a21o_1
*I *74:A I *D sky130_fd_sc_hd__buf_2
*I *54:A2 I *D sky130_fd_sc_hd__a21o_1
*I *60:A3 I *D sky130_fd_sc_hd__o31ai_1
*I *55:B I *D sky130_fd_sc_hd__nand3_1
*I *48:B I *D sky130_fd_sc_hd__xor2_1
*I *66:Q O *D sky130_fd_sc_hd__dfxtp_1
*CAP
1 *52:A1 0.000124917
2 *74:A 0.000349776
3 *54:A2 8.51452e-05
4 *60:A3 9.30513e-05
5 *55:B 0
6 *48:B 0.000248876
7 *66:Q 3.46242e-05
8 *39:47 0.000621593
9 *39:34 0.000279723
10 *39:12 0.000270678
11 *39:10 4.88806e-05
12 *39:8 0.000186619
13 *48:B *40:35 5.80706e-06
14 *52:A1 *40:35 0.000183684
15 *54:A2 *54:B1 0
16 *74:A *40:8 0
17 *39:10 *40:35 5.7616e-05
18 *39:12 *40:35 2.84398e-05
19 *39:47 *54:B1 0.000113286
20 *44:A *52:A1 0.000132297
21 *44:B *39:8 2.27416e-05
22 *50:A *48:B 0.00014285
23 *50:B *48:B 4.16899e-05
24 *52:B1 *52:A1 9.60939e-05
25 *53:A3 *60:A3 0.000146881
26 *53:A3 *39:8 5.30637e-06
27 *54:A1 *39:47 2.47833e-05
28 *56:B *48:B 0
29 *57:A *60:A3 0.000192219
30 *57:A *39:47 0.000215102
31 *57:B *48:B 0
32 *59:A2 *74:A 8.63635e-05
33 *59:A2 *39:47 0.000404707
34 *60:A1 *48:B 0
35 *60:A2 *48:B 0
36 *60:B1 *60:A3 6.46302e-05
37 *64:B1 *39:8 2.87555e-06
38 *17:21 *52:A1 3.14163e-05
39 *20:8 *48:B 2.67377e-05
40 *20:8 *60:A3 0
41 *37:44 *52:A1 0
42 *38:50 *48:B 1.02504e-05
43 *38:50 *52:A1 2.24646e-05
44 *38:50 *39:8 5.33005e-05
45 *38:50 *39:10 9.71532e-05
46 *38:50 *39:12 4.56437e-05
47 *38:50 *39:47 3.71441e-05
48 *38:58 *48:B 0.000664348
*RES
1 *66:Q *39:8 15.1571 
2 *39:8 *39:10 1.33929 
3 *39:10 *39:12 0.732143 
4 *39:12 *48:B 21.3179 
5 *39:12 *55:B 13.8 
6 *39:10 *39:34 4.5 
7 *39:34 *60:A3 12.8536 
8 *39:34 *39:47 7.51786 
9 *39:47 *54:A2 11.3893 
10 *39:47 *74:A 16.3179 
11 *39:8 *52:A1 17.9607 
*END

*D_NET *40 0.00500312
*CONN
*I *75:A I *D sky130_fd_sc_hd__buf_2
*I *58:A1 I *D sky130_fd_sc_hd__a21oi_1
*I *55:C I *D sky130_fd_sc_hd__nand3_1
*I *54:B1 I *D sky130_fd_sc_hd__a21o_1
*I *61:B I *D sky130_fd_sc_hd__nand2b_1
*I *67:Q O *D sky130_fd_sc_hd__dfxtp_1
*CAP
1 *75:A 0.00025567
2 *58:A1 0
3 *55:C 0
4 *54:B1 0.000189001
5 *61:B 0.000264381
6 *67:Q 2.95741e-05
7 *40:35 0.000431026
8 *40:18 0.000695501
9 *40:8 0.000534177
10 *40:6 0.000630325
11 counter[1] *75:A 4.10642e-05
12 *44:A *40:35 4.00025e-05
13 *46:A2 *40:8 0
14 *46:B1 *40:8 1.02936e-05
15 *48:B *40:35 5.80706e-06
16 *52:A1 *40:35 0.000183684
17 *52:A2 *40:18 8.90199e-05
18 *52:B1 *61:B 1.40306e-05
19 *52:B1 *40:18 2.07491e-05
20 *53:A1 *61:B 0
21 *53:A2 *61:B 6.57815e-05
22 *54:A1 *54:B1 1.24368e-05
23 *54:A1 *40:35 0
24 *54:A2 *54:B1 0
25 *56:A *54:B1 0
26 *56:B *54:B1 0.00014285
27 *57:A *54:B1 8.47274e-05
28 *57:B *40:35 0
29 *59:A2 *40:8 0
30 *59:B1 *40:8 0
31 *67:CLK *40:8 5.55142e-05
32 *67:D *40:8 8.42801e-05
33 *74:A *40:8 0
34 *15:25 *40:35 2.94103e-05
35 *17:34 *40:8 9.41642e-05
36 *17:34 *40:18 0.000140933
37 *18:6 *61:B 1.92789e-05
38 *18:6 *40:18 0.000120439
39 *31:10 *61:B 0.000310292
40 *34:27 *61:B 2.34767e-05
41 *36:8 *61:B 0.000142381
42 *38:31 *40:18 4.35048e-05
43 *38:31 *40:35 0
44 *38:50 *40:18 0
45 *39:10 *40:35 5.7616e-05
46 *39:12 *40:35 2.84398e-05
47 *39:47 *54:B1 0.000113286
*RES
1 *67:Q *40:6 9.83571 
2 *40:6 *40:8 7.10714 
3 *40:8 *40:18 15 
4 *40:18 *61:B 16.4696 
5 *40:18 *40:35 14.8929 
6 *40:35 *54:B1 14.3893 
7 *40:35 *55:C 9.3 
8 *40:8 *58:A1 9.3 
9 *40:6 *75:A 22.675 
*END

*D_NET *41 0.00222436
*CONN
*I *62:B1 I *D sky130_fd_sc_hd__a31o_1
*I *63:B I *D sky130_fd_sc_hd__nand4_1
*I *76:A I *D sky130_fd_sc_hd__buf_2
*I *68:Q O *D sky130_fd_sc_hd__dfxtp_1
*CAP
1 *62:B1 0.000402624
2 *63:B 0
3 *76:A 0
4 *68:Q 0.000234602
5 *41:19 0.000594067
6 *41:10 0.000426044
7 *62:A2 *62:B1 6.10501e-05
8 *63:D *62:B1 2.89016e-05
9 *70:A *41:10 0
10 *34:31 *62:B1 3.05446e-05
11 *35:12 *41:19 0.000274294
12 *35:23 *62:B1 7.1274e-05
13 *35:23 *41:19 0.00010096
*RES
1 *68:Q *41:10 14.3714 
2 *41:10 *76:A 9.3 
3 *41:10 *41:19 4.96429 
4 *41:19 *63:B 9.3 
5 *41:19 *62:B1 18.5857 
*END
