*SPEF "ieee 1481-1999"
*DESIGN "counter_dut"
*DATE "10:33:39 Wednesday December 04, 2024"
*VENDOR "The OpenROAD Project"
*PROGRAM "OpenROAD"
*VERSION "edf00dff99f6c40d67a30c0e22a8191c5d2ed9d6"
*DESIGN_FLOW "NAME_SCOPE LOCAL" "PIN_CAP NONE"
*DIVIDER /
*DELIMITER :
*BUS_DELIMITER []
*T_UNIT 1 NS
*C_UNIT 1 PF
*R_UNIT 1 OHM
*L_UNIT 1 HENRY

*NAME_MAP
*1 clk
*2 counter[0]
*3 counter[1]
*4 counter[2]
*5 counter[3]
*6 enable
*7 reset
*8 up_down
*11 _00_
*12 _01_
*13 _02_
*14 _03_
*15 _04_
*16 _05_
*17 _06_
*18 _07_
*19 _08_
*20 _09_
*21 _10_
*22 _11_
*23 _12_
*24 _13_
*25 _14_
*26 _15_
*27 _16_
*28 _17_
*29 _18_
*30 _19_
*31 _20_
*32 _21_
*33 _22_
*34 clknet_0_clk
*35 clknet_1_0__leaf_clk
*36 clknet_1_1__leaf_clk
*37 net1
*38 net2
*39 net3
*40 net4
*41 net5
*42 net6
*43 net7
*44 _23_
*45 _24_
*46 _25_
*47 _26_
*48 _27_
*49 _28_
*50 _29_
*51 _30_
*52 _31_
*53 _32_
*54 _33_
*55 _34_
*56 _35_
*57 _36_
*58 _37_
*59 _38_
*60 _39_
*61 _40_
*62 _41_
*63 _42_
*64 _43_
*65 _44_
*66 _45_
*67 _46_
*68 _47_
*69 _48_
*70 _49_
*71 clkbuf_0_clk
*72 clkbuf_1_0__f_clk
*73 clkbuf_1_1__f_clk
*74 input1
*75 input2
*76 input3
*77 output4
*78 output5
*79 output6
*80 output7

*PORTS
clk I
counter[0] O
counter[1] O
counter[2] O
counter[3] O
enable I
reset I
up_down I

*D_NET *1 0.00148148
*CONN
*P clk I
*I *71:A I *D sky130_fd_sc_hd__clkbuf_16
*CAP
1 clk 0.000513997
2 *71:A 0.000513997
3 *71:A *54:A1 7.37714e-05
4 *71:A *55:A3 0.00013204
5 *71:A *74:A 6.59989e-05
6 *71:A *76:A 5.38666e-05
7 *71:A *17:16 0.000127811
*RES
1 clk *71:A 7.05403 
*END

*D_NET *2 0.000289321
*CONN
*P counter[0] O
*I *77:X O *D sky130_fd_sc_hd__buf_1
*CAP
1 counter[0] 0.000112228
2 *77:X 0.000112228
3 counter[0] counter[1] 5.2615e-05
4 counter[0] *42:17 1.22505e-05
*RES
1 *77:X counter[0] 4.67197 
*END

*D_NET *3 0.000414957
*CONN
*P counter[1] O
*I *78:X O *D sky130_fd_sc_hd__buf_1
*CAP
1 counter[1] 0.000135998
2 *78:X 0.000135998
3 counter[1] counter[2] 5.3873e-05
4 counter[1] *42:17 3.64741e-05
5 counter[0] counter[1] 5.2615e-05
*RES
1 *78:X counter[1] 5.18197 
*END

*D_NET *4 0.000352195
*CONN
*P counter[2] O
*I *79:X O *D sky130_fd_sc_hd__buf_1
*CAP
1 counter[2] 0.000149161
2 *79:X 0.000149161
3 counter[1] counter[2] 5.3873e-05
*RES
1 *79:X counter[2] 4.92697 
*END

*D_NET *5 0.000286796
*CONN
*P counter[3] O
*I *80:X O *D sky130_fd_sc_hd__buf_1
*CAP
1 counter[3] 0.000116465
2 *80:X 0.000116465
3 counter[3] *75:A 5.38666e-05
*RES
1 *80:X counter[3] 4.67197 
*END

*D_NET *6 0.000672938
*CONN
*P enable I
*I *74:A I *D sky130_fd_sc_hd__buf_1
*CAP
1 enable 0.000190555
2 *74:A 0.000190555
3 *74:A *70:CLK 0.000132472
4 *74:A *75:A 6.58337e-05
5 *74:A *38:10 2.75229e-05
6 *71:A *74:A 6.59989e-05
*RES
1 enable *74:A 6.80023 
*END

*D_NET *7 0.000419903
*CONN
*P reset I
*I *75:A I *D sky130_fd_sc_hd__buf_1
*CAP
1 reset 0.000121296
2 *75:A 0.000121296
3 *75:A *70:CLK 5.76102e-05
4 counter[3] *75:A 5.38666e-05
5 *74:A *75:A 6.58337e-05
*RES
1 reset *75:A 5.69197 
*END

*D_NET *8 0.000457249
*CONN
*P up_down I
*I *76:A I *D sky130_fd_sc_hd__buf_1
*CAP
1 up_down 0.000201691
2 *76:A 0.000201691
3 *76:A *46:B 0
4 *71:A *76:A 5.38666e-05
*RES
1 up_down *76:A 6.20197 
*END

*D_NET *11 0.00138589
*CONN
*I *67:D I *D sky130_fd_sc_hd__dfxtp_1
*I *49:Y O *D sky130_fd_sc_hd__o21ai_1
*CAP
1 *67:D 0.000458822
2 *49:Y 0.000458822
3 *67:D *45:A 2.65814e-06
4 *67:D *60:A1 2.19562e-06
5 *67:D *61:B1 8.65905e-05
6 *67:D *67:CLK 0.000243639
7 *67:D *69:CLK 6.55406e-05
8 *67:D *69:D 3.34652e-05
9 *67:D *18:31 2.76478e-05
10 *67:D *40:6 6.50844e-06
*RES
1 *49:Y *67:D 17.2838 
*END

*D_NET *12 0.000593029
*CONN
*I *68:D I *D sky130_fd_sc_hd__dfxtp_1
*I *55:X O *D sky130_fd_sc_hd__a31o_1
*CAP
1 *68:D 0.00022655
2 *55:X 0.00022655
3 *68:D *46:B 0.00013866
4 *68:D *55:A3 0
5 *68:D *63:A_N 0
6 *68:D *39:6 1.26934e-06
7 *68:D *39:10 0
*RES
1 *55:X *68:D 12.0487 
*END

*D_NET *13 0.000663078
*CONN
*I *69:D I *D sky130_fd_sc_hd__dfxtp_1
*I *61:Y O *D sky130_fd_sc_hd__o21ai_1
*CAP
1 *69:D 0.00011894
2 *61:Y 0.00011894
3 *69:D *48:A2 9.78082e-05
4 *69:D *60:A1 0.0001728
5 *69:D *67:CLK 8.53113e-06
6 *69:D *69:CLK 8.76033e-05
7 *69:D *73:A 2.49909e-05
8 *67:D *69:D 3.34652e-05
*RES
1 *61:Y *69:D 10.4888 
*END

*D_NET *14 0.000372993
*CONN
*I *70:D I *D sky130_fd_sc_hd__dfxtp_1
*I *66:X O *D sky130_fd_sc_hd__a31o_1
*CAP
1 *70:D 0.000124303
2 *66:X 0.000124303
3 *70:D *66:A2 2.84224e-05
4 *70:D *70:CLK 0
5 *70:D *80:A 7.87426e-05
6 *70:D *38:10 1.72218e-05
*RES
1 *66:X *70:D 10.0087 
*END

*D_NET *15 0.00231523
*CONN
*I *66:A1 I *D sky130_fd_sc_hd__a31o_1
*I *45:B I *D sky130_fd_sc_hd__nand2_1
*I *55:A2 I *D sky130_fd_sc_hd__a31o_1
*I *46:A I *D sky130_fd_sc_hd__nor2_1
*I *44:Y O *D sky130_fd_sc_hd__inv_2
*CAP
1 *66:A1 0.000103857
2 *45:B 0.000143483
3 *55:A2 0
4 *46:A 6.80324e-05
5 *44:Y 2.90972e-05
6 *15:30 0.000378769
7 *15:14 0.000147301
8 *15:6 0.000239795
9 *45:B *66:A3 0
10 *45:B *66:B1 0
11 *45:B *80:A 1.56428e-05
12 *45:B *18:10 2.46587e-05
13 *45:B *18:31 5.05521e-05
14 *45:B *43:6 3.09179e-05
15 *46:A *44:A 8.65961e-05
16 *46:A *55:A3 3.38288e-05
17 *46:A *37:6 0
18 *46:A *37:15 0
19 *66:A1 *66:A2 6.82181e-05
20 *66:A1 *66:A3 2.30292e-05
21 *66:A1 *66:B1 4.82863e-05
22 *66:A1 *80:A 2.77183e-05
23 *66:A1 *43:25 7.5416e-05
24 *15:6 *55:A3 7.3151e-05
25 *15:6 *55:B1 1.83847e-05
26 *15:6 *64:A1 2.65814e-06
27 *15:14 *44:A 4.23039e-05
28 *15:14 *55:A3 0.000120655
29 *15:14 *55:B1 8.09021e-06
30 *15:14 *64:A1 2.20732e-05
31 *15:14 *37:15 1.1392e-05
32 *15:14 *37:23 5.06699e-05
33 *15:30 *44:A 0
34 *15:30 *55:B1 7.41384e-05
35 *15:30 *64:A3 7.96104e-06
36 *15:30 *65:B 2.05641e-05
37 *15:30 *66:A2 5.29405e-05
38 *15:30 *17:58 0
39 *15:30 *37:23 4.0136e-05
40 *15:30 *43:25 0.000174913
*RES
1 *44:Y *15:6 2.395 
2 *15:6 *15:14 6.01 
3 *15:14 *46:A 3.085 
4 *15:14 *55:A2 1.6 
5 *15:6 *15:30 5.42 
6 *15:30 *45:B 6.465 
7 *15:30 *66:A1 6.645 
*END

*D_NET *16 0.00075497
*CONN
*I *49:A2 I *D sky130_fd_sc_hd__o21ai_1
*I *61:A1 I *D sky130_fd_sc_hd__o21ai_1
*I *45:Y O *D sky130_fd_sc_hd__nand2_1
*CAP
1 *49:A2 0
2 *61:A1 8.73641e-05
3 *45:Y 6.1497e-05
4 *16:6 0.000148861
5 *61:A1 *45:A 0.000142294
6 *61:A1 *49:A1 0.000166346
7 *61:A1 *49:B1 2.42236e-05
8 *61:A1 *66:A3 1.1561e-05
9 *61:A1 *17:24 4.66742e-05
10 *61:A1 *18:31 7.27298e-06
11 *16:6 *45:A 4.41506e-05
12 *16:6 *66:A3 0
13 *16:6 *18:31 1.47256e-05
*RES
1 *45:Y *16:6 2.74 
2 *16:6 *61:A1 8.54 
3 *16:6 *49:A2 1.6 
*END

*D_NET *17 0.00419357
*CONN
*I *66:B1 I *D sky130_fd_sc_hd__a31o_1
*I *54:B1 I *D sky130_fd_sc_hd__a21o_1
*I *48:B1 I *D sky130_fd_sc_hd__a21oi_1
*I *60:B1 I *D sky130_fd_sc_hd__a21oi_1
*I *46:Y O *D sky130_fd_sc_hd__nor2_1
*CAP
1 *66:B1 0.00028317
2 *54:B1 0
3 *48:B1 0.000155658
4 *60:B1 5.11417e-05
5 *46:Y 0.000423097
6 *17:58 0.000324767
7 *17:24 0.000409511
8 *17:16 0.000667405
9 *48:B1 *48:A1 3.00381e-05
10 *48:B1 *48:A2 0.000259366
11 *48:B1 *49:B1 2.65814e-06
12 *48:B1 *61:A2 3.76596e-05
13 *48:B1 *72:A 3.69521e-05
14 *48:B1 *73:A 0.000220004
15 *48:B1 *18:31 0
16 *48:B1 *34:6 1.34503e-05
17 *48:B1 *40:10 2.19562e-06
18 *60:B1 *49:B1 0.000166353
19 *60:B1 *61:B1 8.06163e-05
20 *60:B1 *65:B 0
21 *60:B1 *73:A 3.25831e-05
22 *66:B1 *54:A1 2.20632e-05
23 *66:B1 *66:A2 0
24 *66:B1 *66:A3 0.000239807
25 *66:B1 *80:A 3.1562e-06
26 *66:B1 *18:31 7.70828e-05
27 *66:B1 *43:6 1.04258e-05
28 *66:B1 *43:25 0
29 *17:16 *54:A1 3.44025e-05
30 *17:16 *55:B1 0
31 *17:16 *64:A3 0.000119129
32 *17:16 *70:CLK 9.26907e-06
33 *17:24 *64:A2 0.000120655
34 *17:24 *65:B 6.64017e-05
35 *17:24 *18:31 0
36 *17:24 *37:34 2.49564e-05
37 *17:58 *54:A1 3.69913e-05
38 *17:58 *65:B 9.82856e-06
39 *17:58 *43:25 0
40 *45:B *66:B1 0
41 *61:A1 *17:24 4.66742e-05
42 *66:A1 *66:B1 4.82863e-05
43 *71:A *17:16 0.000127811
44 *15:30 *17:58 0
*RES
1 *46:Y *17:16 6.42873 
2 *17:16 *17:24 6.02 
3 *17:24 *60:B1 7.85 
4 *17:24 *48:B1 10.82 
5 *17:16 *17:58 0.87 
6 *17:58 *54:B1 3.6 
7 *17:58 *66:B1 9.705 
*END

*D_NET *18 0.00295645
*CONN
*I *60:A2 I *D sky130_fd_sc_hd__a21oi_1
*I *48:A2 I *D sky130_fd_sc_hd__a21oi_1
*I *54:A2 I *D sky130_fd_sc_hd__a21o_1
*I *47:Y O *D sky130_fd_sc_hd__nor2_1
*CAP
1 *60:A2 0
2 *48:A2 0.000126831
3 *54:A2 6.12246e-05
4 *47:Y 0.00019527
5 *18:31 0.000395387
6 *18:10 0.000525051
7 *48:A2 *61:A2 1.94636e-05
8 *48:A2 *61:B1 0.000185411
9 *48:A2 *67:CLK 0.000235771
10 *48:A2 *69:CLK 1.1561e-05
11 *48:A2 *73:A 1.86911e-05
12 *54:A2 *65:B 8.40213e-05
13 *54:A2 *65:C 5.83121e-06
14 *18:10 *64:A1 9.27255e-06
15 *18:10 *64:A2 7.80364e-05
16 *18:10 *64:A3 1.10841e-05
17 *18:10 *65:B 4.16445e-05
18 *18:10 *66:A2 4.99619e-05
19 *18:10 *80:A 0
20 *18:10 *37:15 6.05513e-05
21 *18:10 *38:10 4.82863e-05
22 *18:31 *45:A 0.000118081
23 *18:31 *54:A1 8.53113e-06
24 *18:31 *60:A1 2.49909e-05
25 *18:31 *61:B1 5.05437e-05
26 *18:31 *65:C 3.1835e-05
27 *18:31 *66:A3 0
28 *45:B *18:10 2.46587e-05
29 *45:B *18:31 5.05521e-05
30 *48:B1 *48:A2 0.000259366
31 *48:B1 *18:31 0
32 *61:A1 *18:31 7.27298e-06
33 *66:B1 *18:31 7.70828e-05
34 *67:D *18:31 2.76478e-05
35 *69:D *48:A2 9.78082e-05
36 *16:6 *18:31 1.47256e-05
37 *17:24 *18:31 0
*RES
1 *47:Y *18:10 6.31 
2 *18:10 *54:A2 3.01 
3 *18:10 *18:31 9.835 
4 *18:31 *48:A2 11.57 
5 *18:31 *60:A2 1.6 
*END

*D_NET *19 0.00149686
*CONN
*I *49:B1 I *D sky130_fd_sc_hd__o21ai_1
*I *48:Y O *D sky130_fd_sc_hd__a21oi_1
*CAP
1 *49:B1 0.000179486
2 *48:Y 0.000179486
3 *49:B1 *45:A 0.000164679
4 *49:B1 *49:A1 4.41347e-05
5 *49:B1 *53:A 5.56629e-05
6 *49:B1 *61:A2 0.000351685
7 *49:B1 *61:B1 1.73877e-05
8 *49:B1 *72:A 7.70758e-05
9 *49:B1 *73:A 1.86911e-05
10 *49:B1 *37:34 0.000167047
11 *49:B1 *40:10 4.82863e-05
12 *48:B1 *49:B1 2.65814e-06
13 *60:B1 *49:B1 0.000166353
14 *61:A1 *49:B1 2.42236e-05
*RES
1 *48:Y *49:B1 14.385 
*END

*D_NET *20 0.000371623
*CONN
*I *51:B I *D sky130_fd_sc_hd__or2_1
*I *52:B I *D sky130_fd_sc_hd__nand2_1
*I *50:X O *D sky130_fd_sc_hd__xor2_1
*CAP
1 *51:B 0
2 *52:B 1.28767e-05
3 *50:X 8.83779e-05
4 *20:8 0.000101255
5 *52:B *53:B 4.99619e-05
6 *20:8 *53:B 0.000115146
7 *20:8 *39:21 4.00541e-06
*RES
1 *50:X *20:8 3.79 
2 *20:8 *52:B 2.05 
3 *20:8 *51:B 1.6 
*END

*D_NET *21 0.00134584
*CONN
*I *53:A I *D sky130_fd_sc_hd__nand2_1
*I *59:A I *D sky130_fd_sc_hd__xnor2_1
*I *51:X O *D sky130_fd_sc_hd__or2_1
*CAP
1 *53:A 5.51113e-05
2 *59:A 0
3 *51:X 0.000177258
4 *21:10 0.000232369
5 *53:A *49:A1 7.47284e-05
6 *53:A *50:A 2.14129e-05
7 *53:A *61:A2 5.10957e-05
8 *53:A *40:12 0.000119214
9 *53:A *40:57 2.75538e-05
10 *21:10 *50:A 0.000141394
11 *21:10 *53:B 0.000313852
12 *21:10 *62:A1 1.16646e-05
13 *21:10 *62:A2 1.22939e-05
14 *21:10 *62:B1 3.18568e-05
15 *21:10 *40:57 4.18603e-06
16 *21:10 *41:6 0
17 *21:10 *41:27 1.61831e-05
18 *49:B1 *53:A 5.56629e-05
*RES
1 *51:X *21:10 8.535 
2 *21:10 *59:A 3.6 
3 *21:10 *53:A 6 
*END

*D_NET *22 0.00182052
*CONN
*I *53:B I *D sky130_fd_sc_hd__nand2_1
*I *52:Y O *D sky130_fd_sc_hd__nand2_1
*CAP
1 *53:B 0.000261826
2 *52:Y 0.000261826
3 *53:B *49:A1 6.68849e-05
4 *53:B *50:A 0.000289589
5 *53:B *62:A1 0
6 *53:B *63:B 0.000165374
7 *53:B *39:21 0.000163199
8 *53:B *40:12 0.00011235
9 *53:B *41:12 0
10 *53:B *41:27 2.0514e-05
11 *52:B *53:B 4.99619e-05
12 *20:8 *53:B 0.000115146
13 *21:10 *53:B 0.000313852
*RES
1 *52:Y *53:B 16.065 
*END

*D_NET *23 0.00167911
*CONN
*I *55:A3 I *D sky130_fd_sc_hd__a31o_1
*I *53:Y O *D sky130_fd_sc_hd__nand2_1
*CAP
1 *55:A3 0.000385197
2 *53:Y 0.000385197
3 *55:A3 *44:A 1.12578e-05
4 *55:A3 *54:A1 9.12146e-06
5 *55:A3 *55:B1 3.09803e-05
6 *55:A3 *62:A2 0
7 *55:A3 *62:A3 0
8 *55:A3 *63:A_N 9.73466e-05
9 *55:A3 *63:B 9.65732e-05
10 *55:A3 *72:A 6.59058e-05
11 *55:A3 *30:10 5.36384e-06
12 *55:A3 *37:15 4.39911e-06
13 *55:A3 *37:34 0.00022226
14 *55:A3 *40:10 5.83121e-06
15 *55:A3 *41:6 0
16 *46:A *55:A3 3.38288e-05
17 *68:D *55:A3 0
18 *71:A *55:A3 0.00013204
19 *15:6 *55:A3 7.3151e-05
20 *15:14 *55:A3 0.000120655
*RES
1 *53:Y *55:A3 20.275 
*END

*D_NET *24 0.000652527
*CONN
*I *55:B1 I *D sky130_fd_sc_hd__a31o_1
*I *54:X O *D sky130_fd_sc_hd__a21o_1
*CAP
1 *55:B1 0.000166067
2 *54:X 0.000166067
3 *55:B1 *44:A 5.90117e-05
4 *55:B1 *54:A1 0
5 *55:B1 *64:A2 6.34213e-05
6 *55:B1 *65:B 0
7 *55:B1 *37:23 1.70546e-05
8 *55:B1 *37:34 4.93123e-05
9 *55:A3 *55:B1 3.09803e-05
10 *15:6 *55:B1 1.83847e-05
11 *15:14 *55:B1 8.09021e-06
12 *15:30 *55:B1 7.41384e-05
13 *17:16 *55:B1 0
*RES
1 *54:X *55:B1 10.9688 
*END

*D_NET *25 0.000373278
*CONN
*I *58:A I *D sky130_fd_sc_hd__nand2_1
*I *56:X O *D sky130_fd_sc_hd__a21o_1
*CAP
1 *58:A 0.00015895
2 *56:X 0.00015895
3 *58:A *56:A1 5.53774e-05
4 *58:A *58:B 0
5 *58:A *62:B1 0
*RES
1 *56:X *58:A 6.17 
*END

*D_NET *26 0.00082177
*CONN
*I *62:B1 I *D sky130_fd_sc_hd__o31ai_1
*I *58:B I *D sky130_fd_sc_hd__nand2_1
*I *57:Y O *D sky130_fd_sc_hd__nand3_1
*CAP
1 *62:B1 0.000155748
2 *58:B 0.000101513
3 *57:Y 9.06313e-06
4 *26:6 0.000266324
5 *58:B *41:27 1.08758e-05
6 *62:B1 *56:A1 9.38957e-06
7 *62:B1 *59:B 4.60584e-05
8 *62:B1 *62:A2 5.62085e-05
9 *62:B1 *63:B 2.18022e-05
10 *62:B1 *40:57 8.65905e-05
11 *62:B1 *41:27 0
12 *26:6 *56:A1 1.16578e-05
13 *26:6 *40:57 1.46828e-05
14 *58:A *58:B 0
15 *58:A *62:B1 0
16 *21:10 *62:B1 3.18568e-05
*RES
1 *57:Y *26:6 2.05 
2 *26:6 *58:B 3.43 
3 *26:6 *62:B1 5.185 
*END

*D_NET *27 0.000856969
*CONN
*I *59:B I *D sky130_fd_sc_hd__xnor2_1
*I *58:Y O *D sky130_fd_sc_hd__nand2_1
*CAP
1 *59:B 0.000140065
2 *58:Y 0.000140065
3 *59:B *56:A1 4.35348e-05
4 *59:B *63:B 0.000272978
5 *59:B *40:57 0.000122337
6 *59:B *41:27 6.10132e-05
7 *59:B *41:40 3.09164e-05
8 *62:B1 *59:B 4.60584e-05
*RES
1 *58:Y *59:B 11.355 
*END

*D_NET *28 0.00110169
*CONN
*I *61:A2 I *D sky130_fd_sc_hd__o21ai_1
*I *59:Y O *D sky130_fd_sc_hd__xnor2_1
*CAP
1 *61:A2 0.000154982
2 *59:Y 0.000154982
3 *61:A2 *63:B 4.82863e-05
4 *61:A2 *73:A 0.000192481
5 *61:A2 *40:10 1.56428e-05
6 *61:A2 *40:57 7.5416e-05
7 *48:A2 *61:A2 1.94636e-05
8 *48:B1 *61:A2 3.76596e-05
9 *49:B1 *61:A2 0.000351685
10 *53:A *61:A2 5.10957e-05
*RES
1 *59:Y *61:A2 12.6 
*END

*D_NET *29 0.000631685
*CONN
*I *61:B1 I *D sky130_fd_sc_hd__o21ai_1
*I *60:Y O *D sky130_fd_sc_hd__a21oi_1
*CAP
1 *61:B1 9.01093e-05
2 *60:Y 9.01093e-05
3 *61:B1 *66:A3 0
4 *61:B1 *73:A 3.09164e-05
5 *48:A2 *61:B1 0.000185411
6 *49:B1 *61:B1 1.73877e-05
7 *60:B1 *61:B1 8.06163e-05
8 *67:D *61:B1 8.65905e-05
9 *18:31 *61:B1 5.05437e-05
*RES
1 *60:Y *61:B1 10.65 
*END

*D_NET *30 0.00224375
*CONN
*I *65:C I *D sky130_fd_sc_hd__nand4_1
*I *64:A2 I *D sky130_fd_sc_hd__a31o_1
*I *62:Y O *D sky130_fd_sc_hd__o31ai_1
*CAP
1 *65:C 7.03003e-05
2 *64:A2 0.000136485
3 *62:Y 0.000125275
4 *30:10 0.00033206
5 *64:A2 *47:A 0
6 *64:A2 *64:A1 4.54008e-05
7 *64:A2 *65:B 0.00019637
8 *64:A2 *37:34 0
9 *65:C *54:A1 8.35665e-05
10 *65:C *64:A3 9.98943e-06
11 *65:C *65:B 2.39856e-05
12 *65:C *66:A3 1.64078e-05
13 *65:C *31:10 4.90031e-05
14 *30:10 *49:A1 0
15 *30:10 *54:A1 0.000460007
16 *30:10 *62:A2 1.82667e-05
17 *30:10 *62:A3 1.16578e-05
18 *30:10 *63:B 7.97502e-05
19 *30:10 *31:10 0.000280078
20 *54:A2 *65:C 5.83121e-06
21 *55:A3 *30:10 5.36384e-06
22 *55:B1 *64:A2 6.34213e-05
23 *17:24 *64:A2 0.000120655
24 *18:10 *64:A2 7.80364e-05
25 *18:31 *65:C 3.1835e-05
*RES
1 *62:Y *30:10 9.255 
2 *30:10 *64:A2 7.87125 
3 *30:10 *65:C 5.52 
*END

*D_NET *31 0.00172128
*CONN
*I *64:A3 I *D sky130_fd_sc_hd__a31o_1
*I *65:D I *D sky130_fd_sc_hd__nand4_1
*I *63:Y O *D sky130_fd_sc_hd__nand2b_1
*CAP
1 *64:A3 0.000372493
2 *65:D 0
3 *63:Y 9.92148e-05
4 *31:10 0.000471707
5 *64:A3 *44:A 4.18603e-06
6 *64:A3 *64:A1 7.25921e-06
7 *64:A3 *66:A3 1.92979e-05
8 *64:A3 *37:15 7.00889e-06
9 *64:A3 *38:10 8.66107e-06
10 *31:10 *49:A1 0.000152285
11 *31:10 *66:A3 5.19573e-05
12 *31:10 *72:A 4.99619e-05
13 *31:10 *37:34 0
14 *65:C *64:A3 9.98943e-06
15 *65:C *31:10 4.90031e-05
16 *15:30 *64:A3 7.96104e-06
17 *17:16 *64:A3 0.000119129
18 *18:10 *64:A3 1.10841e-05
19 *30:10 *31:10 0.000280078
*RES
1 *63:Y *31:10 7.725 
2 *31:10 *65:D 3.6 
3 *31:10 *64:A3 5.85268 
*END

*D_NET *32 0.000549353
*CONN
*I *66:A2 I *D sky130_fd_sc_hd__a31o_1
*I *64:X O *D sky130_fd_sc_hd__a31o_1
*CAP
1 *66:A2 0.000137263
2 *64:X 0.000137263
3 *66:A2 *70:CLK 0
4 *66:A2 *80:A 7.08455e-05
5 *66:A2 *38:10 4.43871e-06
6 *66:A1 *66:A2 6.82181e-05
7 *66:B1 *66:A2 0
8 *70:D *66:A2 2.84224e-05
9 *15:30 *66:A2 5.29405e-05
10 *18:10 *66:A2 4.99619e-05
*RES
1 *64:X *66:A2 11.07 
*END

*D_NET *33 0.00150554
*CONN
*I *66:A3 I *D sky130_fd_sc_hd__a31o_1
*I *65:Y O *D sky130_fd_sc_hd__nand4_1
*CAP
1 *66:A3 0.000467842
2 *65:Y 0.000467842
3 *66:A3 *49:A1 0.000207797
4 *66:A3 *80:A 0
5 *45:B *66:A3 0
6 *61:A1 *66:A3 1.1561e-05
7 *61:B1 *66:A3 0
8 *64:A3 *66:A3 1.92979e-05
9 *65:C *66:A3 1.64078e-05
10 *66:A1 *66:A3 2.30292e-05
11 *66:B1 *66:A3 0.000239807
12 *16:6 *66:A3 0
13 *18:31 *66:A3 0
14 *31:10 *66:A3 5.19573e-05
*RES
1 *65:Y *66:A3 16.83 
*END

*D_NET *34 0.00181315
*CONN
*I *73:A I *D sky130_fd_sc_hd__clkbuf_16
*I *72:A I *D sky130_fd_sc_hd__clkbuf_16
*I *71:X O *D sky130_fd_sc_hd__clkbuf_16
*CAP
1 *73:A 0.000102054
2 *72:A 0.000237384
3 *71:X 6.87379e-05
4 *34:6 0.000408176
5 *72:A *49:A1 5.46334e-05
6 *72:A *63:A_N 4.99619e-05
7 *72:A *63:B 9.65732e-05
8 *72:A *37:34 3.64998e-06
9 *72:A *40:10 8.73389e-06
10 *34:6 *67:CLK 1.54061e-06
11 *34:6 *40:6 0
12 *48:A2 *73:A 1.86911e-05
13 *48:B1 *72:A 3.69521e-05
14 *48:B1 *73:A 0.000220004
15 *48:B1 *34:6 1.34503e-05
16 *49:B1 *72:A 7.70758e-05
17 *49:B1 *73:A 1.86911e-05
18 *55:A3 *72:A 6.59058e-05
19 *60:B1 *73:A 3.25831e-05
20 *61:A2 *73:A 0.000192481
21 *61:B1 *73:A 3.09164e-05
22 *69:D *73:A 2.49909e-05
23 *31:10 *72:A 4.99619e-05
*RES
1 *71:X *34:6 2.74 
2 *34:6 *72:A 10.835 
3 *34:6 *73:A 9.305 
*END

*D_NET *35 0.00103969
*CONN
*I *70:CLK I *D sky130_fd_sc_hd__dfxtp_1
*I *68:CLK I *D sky130_fd_sc_hd__dfxtp_1
*I *72:X O *D sky130_fd_sc_hd__clkbuf_16
*CAP
1 *70:CLK 0.000258384
2 *68:CLK 8.48349e-05
3 *72:X 0
4 *35:6 0.000343219
5 *68:CLK *46:B 8.34732e-05
6 *70:CLK *44:A 0
7 *70:CLK *46:B 7.04235e-05
8 *70:CLK *38:10 0
9 *66:A2 *70:CLK 0
10 *70:D *70:CLK 0
11 *74:A *70:CLK 0.000132472
12 *75:A *70:CLK 5.76102e-05
13 *17:16 *70:CLK 9.26907e-06
*RES
1 *72:X *35:6 3.6 
2 *35:6 *68:CLK 5.745 
3 *35:6 *70:CLK 9.57 
*END

*D_NET *36 0.00153837
*CONN
*I *69:CLK I *D sky130_fd_sc_hd__dfxtp_1
*I *67:CLK I *D sky130_fd_sc_hd__dfxtp_1
*I *73:X O *D sky130_fd_sc_hd__clkbuf_16
*CAP
1 *69:CLK 3.61521e-05
2 *67:CLK 0.000115552
3 *73:X 0.000183726
4 *36:8 0.000335429
5 *67:CLK *40:6 2.11084e-05
6 *36:8 *60:A1 0.000192218
7 *48:A2 *67:CLK 0.000235771
8 *48:A2 *69:CLK 1.1561e-05
9 *67:D *67:CLK 0.000243639
10 *67:D *69:CLK 6.55406e-05
11 *69:D *67:CLK 8.53113e-06
12 *69:D *69:CLK 8.76033e-05
13 *34:6 *67:CLK 1.54061e-06
*RES
1 *73:X *36:8 7.845 
2 *36:8 *67:CLK 8.745 
3 *36:8 *69:CLK 4.98 
*END

*D_NET *37 0.002755
*CONN
*I *64:A1 I *D sky130_fd_sc_hd__a31o_1
*I *45:A I *D sky130_fd_sc_hd__nand2_1
*I *65:A I *D sky130_fd_sc_hd__nand4_1
*I *55:A1 I *D sky130_fd_sc_hd__a31o_1
*I *47:A I *D sky130_fd_sc_hd__nor2_1
*I *74:X O *D sky130_fd_sc_hd__buf_1
*CAP
1 *64:A1 3.16696e-05
2 *45:A 0.000104614
3 *65:A 0
4 *55:A1 0
5 *47:A 3.55506e-05
6 *74:X 3.10636e-05
7 *37:34 0.000417866
8 *37:23 0.00037787
9 *37:15 0.000177272
10 *37:6 0.000147599
11 *45:A *49:A1 7.1301e-06
12 *37:6 *38:10 2.89767e-05
13 *37:15 *38:10 1.50679e-05
14 *37:23 *44:A 2.67641e-05
15 *37:34 *44:A 4.60584e-05
16 *37:34 *49:A1 9.05299e-05
17 *37:34 *63:A_N 0
18 *46:A *37:6 0
19 *46:A *37:15 0
20 *49:B1 *45:A 0.000164679
21 *49:B1 *37:34 0.000167047
22 *55:A3 *37:15 4.39911e-06
23 *55:A3 *37:34 0.00022226
24 *55:B1 *37:23 1.70546e-05
25 *55:B1 *37:34 4.93123e-05
26 *61:A1 *45:A 0.000142294
27 *64:A2 *47:A 0
28 *64:A2 *64:A1 4.54008e-05
29 *64:A2 *37:34 0
30 *64:A3 *64:A1 7.25921e-06
31 *64:A3 *37:15 7.00889e-06
32 *67:D *45:A 2.65814e-06
33 *72:A *37:34 3.64998e-06
34 *15:6 *64:A1 2.65814e-06
35 *15:14 *64:A1 2.20732e-05
36 *15:14 *37:15 1.1392e-05
37 *15:14 *37:23 5.06699e-05
38 *15:30 *37:23 4.0136e-05
39 *16:6 *45:A 4.41506e-05
40 *17:24 *37:34 2.49564e-05
41 *18:10 *64:A1 9.27255e-06
42 *18:10 *37:15 6.05513e-05
43 *18:31 *45:A 0.000118081
44 *31:10 *37:34 0
*RES
1 *74:X *37:6 2.35 
2 *37:6 *47:A 2.215 
3 *37:6 *37:15 1.875 
4 *37:15 *37:23 5.74 
5 *37:23 *55:A1 1.6 
6 *37:23 *37:34 9.17 
7 *37:34 *65:A 3.6 
8 *37:34 *45:A 6.99 
9 *37:15 *64:A1 2.755 
*END

*D_NET *38 0.00119898
*CONN
*I *47:B I *D sky130_fd_sc_hd__nor2_1
*I *44:A I *D sky130_fd_sc_hd__inv_2
*I *75:X O *D sky130_fd_sc_hd__buf_1
*CAP
1 *47:B 0
2 *44:A 0.00024195
3 *75:X 0.000144364
4 *38:10 0.000386314
5 *44:A *46:B 0
6 *46:A *44:A 8.65961e-05
7 *55:A3 *44:A 1.12578e-05
8 *55:B1 *44:A 5.90117e-05
9 *64:A3 *44:A 4.18603e-06
10 *64:A3 *38:10 8.66107e-06
11 *66:A2 *38:10 4.43871e-06
12 *70:CLK *44:A 0
13 *70:CLK *38:10 0
14 *70:D *38:10 1.72218e-05
15 *74:A *38:10 2.75229e-05
16 *15:14 *44:A 4.23039e-05
17 *15:30 *44:A 0
18 *18:10 *38:10 4.82863e-05
19 *37:6 *38:10 2.89767e-05
20 *37:15 *38:10 1.50679e-05
21 *37:23 *44:A 2.67641e-05
22 *37:34 *44:A 4.60584e-05
*RES
1 *75:X *38:10 6.735 
2 *38:10 *44:A 8.79 
3 *38:10 *47:B 3.6 
*END

*D_NET *39 0.00234559
*CONN
*I *46:B I *D sky130_fd_sc_hd__nor2_1
*I *63:A_N I *D sky130_fd_sc_hd__nand2b_1
*I *62:A1 I *D sky130_fd_sc_hd__o31ai_1
*I *51:A I *D sky130_fd_sc_hd__or2_1
*I *52:A I *D sky130_fd_sc_hd__nand2_1
*I *76:X O *D sky130_fd_sc_hd__buf_1
*CAP
1 *46:B 0.000193207
2 *63:A_N 0.000200859
3 *62:A1 6.27462e-05
4 *51:A 4.11442e-05
5 *52:A 0
6 *76:X 6.58499e-05
7 *39:32 0.000311391
8 *39:21 0.000176417
9 *39:10 0.000224666
10 *39:6 0.000396235
11 *51:A *41:12 0
12 *62:A1 *41:6 5.30673e-05
13 *63:A_N *54:A1 0
14 *63:A_N *41:6 0
15 *63:A_N *41:12 0
16 *39:32 *41:12 0
17 *44:A *46:B 0
18 *53:B *62:A1 0
19 *53:B *39:21 0.000163199
20 *55:A3 *63:A_N 9.73466e-05
21 *68:CLK *46:B 8.34732e-05
22 *68:D *46:B 0.00013866
23 *68:D *63:A_N 0
24 *68:D *39:6 1.26934e-06
25 *68:D *39:10 0
26 *70:CLK *46:B 7.04235e-05
27 *72:A *63:A_N 4.99619e-05
28 *76:A *46:B 0
29 *20:8 *39:21 4.00541e-06
30 *21:10 *62:A1 1.16646e-05
31 *37:34 *63:A_N 0
*RES
1 *76:X *39:6 2.74 
2 *39:6 *39:10 2.445 
3 *39:10 *52:A 1.6 
4 *39:10 *39:21 4.445 
5 *39:21 *51:A 4.215 
6 *39:21 *39:32 1.38 
7 *39:32 *62:A1 5.085 
8 *39:32 *63:A_N 7.83 
9 *39:6 *46:B 11.06 
*END

*D_NET *40 0.00574271
*CONN
*I *77:A I *D sky130_fd_sc_hd__buf_1
*I *48:A1 I *D sky130_fd_sc_hd__a21oi_1
*I *57:A I *D sky130_fd_sc_hd__nand3_1
*I *56:A1 I *D sky130_fd_sc_hd__a21o_1
*I *49:A1 I *D sky130_fd_sc_hd__o21ai_1
*I *62:A2 I *D sky130_fd_sc_hd__o31ai_1
*I *50:A I *D sky130_fd_sc_hd__xor2_1
*I *67:Q O *D sky130_fd_sc_hd__dfxtp_1
*CAP
1 *77:A 0.000130409
2 *48:A1 5.85875e-05
3 *57:A 0
4 *56:A1 0.00015976
5 *49:A1 0.000224223
6 *62:A2 9.47248e-05
7 *50:A 8.32665e-05
8 *67:Q 0
9 *40:57 0.000263876
10 *40:12 0.000203874
11 *40:10 0.000318191
12 *40:6 0.000474069
13 *40:4 0.00037369
14 *50:A *41:12 0
15 *50:A *41:27 0.000164874
16 *56:A1 *57:C 8.8266e-05
17 *56:A1 *63:B 9.80943e-06
18 *56:A1 *42:23 9.78003e-05
19 *56:A1 *42:25 9.26286e-05
20 *62:A2 *62:A3 3.1226e-05
21 *62:A2 *63:B 8.40213e-05
22 *62:A2 *41:6 1.59999e-05
23 *77:A *42:17 0.000236974
24 *40:6 *63:B 4.60736e-05
25 *40:6 *78:A 6.96579e-05
26 *40:6 *41:40 0.000164033
27 *40:10 *63:B 3.24055e-05
28 *45:A *49:A1 7.1301e-06
29 *48:B1 *48:A1 3.00381e-05
30 *48:B1 *40:10 2.19562e-06
31 *49:B1 *49:A1 4.41347e-05
32 *49:B1 *40:10 4.82863e-05
33 *53:A *49:A1 7.47284e-05
34 *53:A *50:A 2.14129e-05
35 *53:A *40:12 0.000119214
36 *53:A *40:57 2.75538e-05
37 *53:B *49:A1 6.68849e-05
38 *53:B *50:A 0.000289589
39 *53:B *40:12 0.00011235
40 *55:A3 *62:A2 0
41 *55:A3 *40:10 5.83121e-06
42 *58:A *56:A1 5.53774e-05
43 *59:B *56:A1 4.35348e-05
44 *59:B *40:57 0.000122337
45 *61:A1 *49:A1 0.000166346
46 *61:A2 *40:10 1.56428e-05
47 *61:A2 *40:57 7.5416e-05
48 *62:B1 *56:A1 9.38957e-06
49 *62:B1 *62:A2 5.62085e-05
50 *62:B1 *40:57 8.65905e-05
51 *66:A3 *49:A1 0.000207797
52 *67:CLK *40:6 2.11084e-05
53 *67:D *40:6 6.50844e-06
54 *72:A *49:A1 5.46334e-05
55 *72:A *40:10 8.73389e-06
56 *21:10 *50:A 0.000141394
57 *21:10 *62:A2 1.22939e-05
58 *21:10 *40:57 4.18603e-06
59 *26:6 *56:A1 1.16578e-05
60 *26:6 *40:57 1.46828e-05
61 *30:10 *49:A1 0
62 *30:10 *62:A2 1.82667e-05
63 *31:10 *49:A1 0.000152285
64 *34:6 *40:6 0
65 *37:34 *49:A1 9.05299e-05
*RES
1 *67:Q *40:4 1.6 
2 *40:4 *40:6 6.315 
3 *40:6 *40:10 3.485 
4 *40:10 *40:12 1.38 
5 *40:12 *50:A 7.23 
6 *40:12 *62:A2 6.0675 
7 *40:10 *49:A1 10.89 
8 *40:6 *40:57 6.775 
9 *40:57 *56:A1 5.98 
10 *40:57 *57:A 1.6 
11 *40:6 *48:A1 2.92 
12 *40:4 *77:A 8.705 
*END

*D_NET *41 0.00450723
*CONN
*I *62:A3 I *D sky130_fd_sc_hd__o31ai_1
*I *54:A1 I *D sky130_fd_sc_hd__a21o_1
*I *78:A I *D sky130_fd_sc_hd__buf_1
*I *56:A2 I *D sky130_fd_sc_hd__a21o_1
*I *57:B I *D sky130_fd_sc_hd__nand3_1
*I *50:B I *D sky130_fd_sc_hd__xor2_1
*I *68:Q O *D sky130_fd_sc_hd__dfxtp_1
*CAP
1 *62:A3 3.61652e-05
2 *54:A1 0.000228254
3 *78:A 0.000246616
4 *56:A2 4.85794e-05
5 *57:B 0
6 *50:B 0
7 *68:Q 6.97336e-05
8 *41:40 0.000424175
9 *41:27 0.00058451
10 *41:12 0.000639321
11 *41:8 0.000412045
12 *41:6 0.000105899
13 *54:A1 *63:B 8.09021e-06
14 *56:A2 *63:B 0
15 *56:A2 *42:23 4.00541e-06
16 *78:A *42:23 6.66464e-05
17 *41:12 *63:B 2.97004e-06
18 *41:40 *63:B 0.000163204
19 *41:40 *42:23 3.99879e-05
20 *41:40 *42:25 4.85494e-05
21 *50:A *41:12 0
22 *50:A *41:27 0.000164874
23 *51:A *41:12 0
24 *53:B *41:12 0
25 *53:B *41:27 2.0514e-05
26 *55:A3 *54:A1 9.12146e-06
27 *55:A3 *62:A3 0
28 *55:A3 *41:6 0
29 *55:B1 *54:A1 0
30 *58:B *41:27 1.08758e-05
31 *59:B *41:27 6.10132e-05
32 *59:B *41:40 3.09164e-05
33 *62:A1 *41:6 5.30673e-05
34 *62:A2 *62:A3 3.1226e-05
35 *62:A2 *41:6 1.59999e-05
36 *62:B1 *41:27 0
37 *63:A_N *54:A1 0
38 *63:A_N *41:6 0
39 *63:A_N *41:12 0
40 *65:C *54:A1 8.35665e-05
41 *66:B1 *54:A1 2.20632e-05
42 *71:A *54:A1 7.37714e-05
43 *17:16 *54:A1 3.44025e-05
44 *17:58 *54:A1 3.69913e-05
45 *18:31 *54:A1 8.53113e-06
46 *21:10 *41:6 0
47 *21:10 *41:27 1.61831e-05
48 *30:10 *54:A1 0.000460007
49 *30:10 *62:A3 1.16578e-05
50 *39:32 *41:12 0
51 *40:6 *78:A 6.96579e-05
52 *40:6 *41:40 0.000164033
*RES
1 *68:Q *41:6 3.085 
2 *41:6 *41:8 2 
3 *41:8 *41:12 4.655 
4 *41:12 *50:B 1.6 
5 *41:12 *41:27 8.945 
6 *41:27 *57:B 3.6 
7 *41:27 *41:40 6.425 
8 *41:40 *56:A2 2.47 
9 *41:40 *78:A 7.24 
10 *41:8 *54:A1 10.08 
11 *41:6 *62:A3 2.41 
*END

*D_NET *42 0.00439768
*CONN
*I *79:A I *D sky130_fd_sc_hd__buf_1
*I *56:B1 I *D sky130_fd_sc_hd__a21o_1
*I *63:B I *D sky130_fd_sc_hd__nand2b_1
*I *57:C I *D sky130_fd_sc_hd__nand3_1
*I *60:A1 I *D sky130_fd_sc_hd__a21oi_1
*I *69:Q O *D sky130_fd_sc_hd__dfxtp_1
*CAP
1 *79:A 0
2 *56:B1 0
3 *63:B 0.000240235
4 *57:C 1.23724e-05
5 *60:A1 0.000277312
6 *69:Q 0
7 *42:25 0.000271644
8 *42:23 0.000153851
9 *42:17 0.000528035
10 *42:4 0.000670532
11 counter[0] *42:17 1.22505e-05
12 counter[1] *42:17 3.64741e-05
13 *53:B *63:B 0.000165374
14 *54:A1 *63:B 8.09021e-06
15 *55:A3 *63:B 9.65732e-05
16 *56:A1 *57:C 8.8266e-05
17 *56:A1 *63:B 9.80943e-06
18 *56:A1 *42:23 9.78003e-05
19 *56:A1 *42:25 9.26286e-05
20 *56:A2 *63:B 0
21 *56:A2 *42:23 4.00541e-06
22 *59:B *63:B 0.000272978
23 *61:A2 *63:B 4.82863e-05
24 *62:A2 *63:B 8.40213e-05
25 *62:B1 *63:B 2.18022e-05
26 *67:D *60:A1 2.19562e-06
27 *69:D *60:A1 0.0001728
28 *72:A *63:B 9.65732e-05
29 *77:A *42:17 0.000236974
30 *78:A *42:23 6.66464e-05
31 *18:31 *60:A1 2.49909e-05
32 *30:10 *63:B 7.97502e-05
33 *36:8 *60:A1 0.000192218
34 *40:6 *63:B 4.60736e-05
35 *40:10 *63:B 3.24055e-05
36 *41:12 *63:B 2.97004e-06
37 *41:40 *63:B 0.000163204
38 *41:40 *42:23 3.99879e-05
39 *41:40 *42:25 4.85494e-05
*RES
1 *69:Q *42:4 1.6 
2 *42:4 *60:A1 7.915 
3 *42:4 *42:17 11.755 
4 *42:17 *42:23 3.585 
5 *42:23 *42:25 1.14 
6 *42:25 *57:C 2.395 
7 *42:25 *63:B 13.9475 
8 *42:23 *56:B1 1.6 
9 *42:17 *79:A 1.6 
*END

*D_NET *43 0.00235961
*CONN
*I *64:B1 I *D sky130_fd_sc_hd__a31o_1
*I *65:B I *D sky130_fd_sc_hd__nand4_1
*I *80:A I *D sky130_fd_sc_hd__buf_1
*I *70:Q O *D sky130_fd_sc_hd__dfxtp_1
*CAP
1 *64:B1 0
2 *65:B 0.000229223
3 *80:A 0.000331449
4 *70:Q 2.98766e-05
5 *43:25 0.000353182
6 *43:6 0.000485284
7 *45:B *80:A 1.56428e-05
8 *45:B *43:6 3.09179e-05
9 *54:A2 *65:B 8.40213e-05
10 *55:B1 *65:B 0
11 *60:B1 *65:B 0
12 *64:A2 *65:B 0.00019637
13 *65:C *65:B 2.39856e-05
14 *66:A1 *80:A 2.77183e-05
15 *66:A1 *43:25 7.5416e-05
16 *66:A2 *80:A 7.08455e-05
17 *66:A3 *80:A 0
18 *66:B1 *80:A 3.1562e-06
19 *66:B1 *43:6 1.04258e-05
20 *66:B1 *43:25 0
21 *70:D *80:A 7.87426e-05
22 *15:30 *65:B 2.05641e-05
23 *15:30 *43:25 0.000174913
24 *17:24 *65:B 6.64017e-05
25 *17:58 *65:B 9.82856e-06
26 *17:58 *43:25 0
27 *18:10 *65:B 4.16445e-05
28 *18:10 *80:A 0
*RES
1 *70:Q *43:6 2.395 
2 *43:6 *80:A 11.93 
3 *43:6 *43:25 4.91 
4 *43:25 *65:B 8.595 
5 *43:25 *64:B1 3.6 
*END
