*SPEF "ieee 1481-1999"
*DESIGN "counter_dut"
*DATE "11:30:41 Wednesday December 04, 2024"
*VENDOR "The OpenROAD Project"
*PROGRAM "OpenROAD"
*VERSION "edf00dff99f6c40d67a30c0e22a8191c5d2ed9d6"
*DESIGN_FLOW "NAME_SCOPE LOCAL" "PIN_CAP NONE"
*DIVIDER /
*DELIMITER :
*BUS_DELIMITER []
*T_UNIT 1 NS
*C_UNIT 1 PF
*R_UNIT 1 OHM
*L_UNIT 1 HENRY

*NAME_MAP
*3 clk
*4 counter[0]
*5 counter[1]
*6 counter[2]
*7 counter[3]
*8 enable
*9 reset
*10 up_down
*11 _00_
*12 _01_
*13 _02_
*14 _03_
*15 _04_
*16 _05_
*17 _06_
*18 _07_
*19 _08_
*20 _09_
*21 _10_
*22 _11_
*23 _12_
*24 _13_
*25 _14_
*26 _15_
*27 _16_
*28 _17_
*29 _18_
*30 _19_
*31 _20_
*32 _21_
*33 _22_
*34 clknet_0_clk
*35 clknet_1_0__leaf_clk
*36 clknet_1_1__leaf_clk
*37 net1
*38 net10
*39 net11
*40 net2
*41 net3
*42 net4
*43 net5
*44 net6
*45 net7
*46 net8
*47 net9
*48 FILLER_0_15
*49 FILLER_0_27
*50 FILLER_0_29
*51 FILLER_0_3
*52 FILLER_1_16
*53 FILLER_1_3
*54 FILLER_2_18
*55 FILLER_3_3
*56 FILLER_4_16
*57 FILLER_4_23
*58 FILLER_4_27
*59 FILLER_4_3
*60 FILLER_5_3
*61 FILLER_6_27
*62 FILLER_6_29
*63 FILLER_6_40
*64 FILLER_7_10
*65 FILLER_7_22
*66 PHY_EDGE_ROW_0_Left_8
*67 PHY_EDGE_ROW_0_Right_0
*68 PHY_EDGE_ROW_1_Left_9
*69 PHY_EDGE_ROW_1_Right_1
*70 PHY_EDGE_ROW_2_Left_10
*71 PHY_EDGE_ROW_2_Right_2
*72 PHY_EDGE_ROW_3_Left_11
*73 PHY_EDGE_ROW_3_Right_3
*74 PHY_EDGE_ROW_4_Left_12
*75 PHY_EDGE_ROW_4_Right_4
*76 PHY_EDGE_ROW_5_Left_13
*77 PHY_EDGE_ROW_5_Right_5
*78 PHY_EDGE_ROW_6_Left_14
*79 PHY_EDGE_ROW_6_Right_6
*80 PHY_EDGE_ROW_7_Left_15
*81 PHY_EDGE_ROW_7_Right_7
*82 TAP_TAPCELL_ROW_0_16
*83 TAP_TAPCELL_ROW_2_17
*84 TAP_TAPCELL_ROW_4_18
*85 TAP_TAPCELL_ROW_6_19
*86 TAP_TAPCELL_ROW_7_20
*87 _23_
*88 _24_
*89 _25_
*90 _26_
*91 _27_
*92 _28_
*93 _29_
*94 _30_
*95 _31_
*96 _32_
*97 _33_
*98 _34_
*99 _35_
*100 _36_
*101 _37_
*102 _38_
*103 _39_
*104 _40_
*105 _41_
*106 _42_
*107 _43_
*108 _44_
*109 _45_
*110 _46_
*111 _47_
*112 _48_
*113 _49_
*114 clkbuf_0_clk
*115 clkbuf_1_0__f_clk
*116 clkbuf_1_1__f_clk
*117 hold1
*118 hold2
*119 hold3
*120 hold4
*121 input1
*122 input2
*123 input3
*124 output4
*125 output5
*126 output6
*127 output7

*PORTS
clk I
counter[0] O
counter[1] O
counter[2] O
counter[3] O
enable I
reset I
up_down I

*D_NET *3 0.0029863
*CONN
*P clk I
*I *114:A I *D sky130_fd_sc_hd__clkbuf_16
*CAP
1 clk 0.00131369
2 *114:A 0
3 *3:11 0.00131369
4 *3:11 *109:B1 0
5 *3:11 *115:A 0.000140415
6 *3:11 *8:13 3.25681e-05
7 *3:11 *9:11 0
8 *3:11 *10:19 2.79122e-05
9 *3:11 *17:36 0
10 *3:11 *18:20 5.79413e-06
11 *3:11 *36:27 0.000152241
*RES
1 clk *3:11 28.0722 
2 *3:11 *114:A 23 
*END

*D_NET *4 0.00130542
*CONN
*P counter[0] O
*I *124:X O *D sky130_fd_sc_hd__buf_2
*CAP
1 counter[0] 0.000217497
2 *124:X 0.000236616
3 *4:8 0.000454113
4 counter[0] counter[1] 7.53639e-05
5 counter[0] counter[2] 0
6 *4:8 *5:10 0.000185803
7 *4:8 *42:14 0.000136028
*RES
1 *124:X *4:8 43.9554 
2 *4:8 counter[0] 8.84373 
*END

*D_NET *5 0.00174929
*CONN
*P counter[1] O
*I *125:X O *D sky130_fd_sc_hd__buf_2
*CAP
1 counter[1] 0.000143801
2 *125:X 0.000352144
3 *5:10 0.000495946
4 counter[1] counter[2] 7.82427e-05
5 *5:10 *6:10 6.73801e-06
6 *5:10 *42:14 0.000262856
7 *5:10 *43:85 0.000148391
8 counter[0] counter[1] 7.53639e-05
9 *4:8 *5:10 0.000185803
*RES
1 *125:X *5:10 46.6896 
2 *5:10 counter[1] 8.75787 
*END

*D_NET *6 0.00163387
*CONN
*P counter[2] O
*I *126:X O *D sky130_fd_sc_hd__buf_2
*CAP
1 counter[2] 0.000284193
2 *126:X 0.000341459
3 *6:10 0.000625652
4 *6:10 *43:85 0.000297582
5 *6:10 *44:38 0
6 counter[0] counter[2] 0
7 counter[1] counter[2] 7.82427e-05
8 *5:10 *6:10 6.73801e-06
*RES
1 *126:X *6:10 43.6446 
2 *6:10 counter[2] 9.01547 
*END

*D_NET *7 0.000783004
*CONN
*P counter[3] O
*I *127:X O *D sky130_fd_sc_hd__buf_2
*CAP
1 counter[3] 0.000102494
2 *127:X 0.000278385
3 *7:10 0.000380879
4 counter[3] *9:11 2.12457e-05
*RES
1 *127:X *7:10 42.1532 
2 *7:10 counter[3] 8.4816 
*END

*D_NET *8 0.00132568
*CONN
*P enable I
*I *121:A I *D sky130_fd_sc_hd__buf_1
*CAP
1 enable 0.000505261
2 *121:A 0
3 *8:13 0.000505261
4 *8:13 *105:A2 0
5 *8:13 *9:11 3.25681e-05
6 *8:13 *10:19 0.000250024
7 *8:13 *15:22 0
8 *8:13 *37:8 0
9 *8:13 *41:12 0
10 *3:11 *8:13 3.25681e-05
*RES
1 enable *8:13 32.8675 
2 *8:13 *121:A 23 
*END

*D_NET *9 0.00133258
*CONN
*P reset I
*I *122:A I *D sky130_fd_sc_hd__buf_1
*CAP
1 reset 0.000475165
2 *122:A 0
3 *9:11 0.000475165
4 *9:11 *127:A 0.000169674
5 *9:11 *45:14 0.000158759
6 counter[3] *9:11 2.12457e-05
7 *3:11 *9:11 0
8 *8:13 *9:11 3.25681e-05
*RES
1 reset *9:11 28.296 
2 *9:11 *122:A 23 
*END

*D_NET *10 0.00100206
*CONN
*P up_down I
*I *123:A I *D sky130_fd_sc_hd__buf_1
*CAP
1 up_down 0.000362061
2 *123:A 0
3 *10:19 0.000362061
4 *3:11 *10:19 2.79122e-05
5 *8:13 *10:19 0.000250024
*RES
1 up_down *10:19 28.7327 
2 *10:19 *123:A 23 
*END

*D_NET *11 0.00039759
*CONN
*I *110:D I *D sky130_fd_sc_hd__dfxtp_1
*I *92:Y O *D sky130_fd_sc_hd__o21ai_1
*CAP
1 *110:D 7.13484e-05
2 *92:Y 4.49069e-05
3 *11:8 0.000116255
4 *110:D *18:42 4.0145e-05
5 *11:8 *91:B1 8.50457e-05
6 *11:8 *92:A2 3.98887e-05
*RES
1 *92:Y *11:8 39.2014 
2 *11:8 *110:D 39.3102 
*END

*D_NET *12 0.00245741
*CONN
*I *111:D I *D sky130_fd_sc_hd__dfxtp_1
*I *98:X O *D sky130_fd_sc_hd__a31o_1
*CAP
1 *111:D 0.000335835
2 *98:X 0.000462605
3 *12:8 0.00079844
4 *111:D *92:A2 0.000108681
5 *111:D *16:20 0.000408138
6 *111:D *36:27 4.07715e-05
7 *111:D *42:24 1.78697e-05
8 *12:8 *98:B1 4.9662e-05
9 *12:8 *18:14 7.44161e-06
10 *12:8 *18:29 4.3122e-05
11 *12:8 *18:42 3.7122e-06
12 *12:8 *37:51 0.000181131
*RES
1 *98:X *12:8 43.8621 
2 *12:8 *111:D 46.0838 
*END

*D_NET *13 0.00144457
*CONN
*I *112:D I *D sky130_fd_sc_hd__dfxtp_1
*I *104:Y O *D sky130_fd_sc_hd__o21ai_1
*CAP
1 *112:D 2.45557e-05
2 *104:Y 0.000514044
3 *13:10 0.000538599
4 *112:D *99:B1 3.07604e-05
5 *112:D *112:CLK 9.04092e-05
6 *13:10 *104:B1 1.73399e-05
7 *13:10 *16:20 2.47664e-05
8 *13:10 *36:27 3.22879e-05
9 *13:10 *42:24 0.00017181
10 *13:10 *43:26 0
*RES
1 *104:Y *13:10 45.2914 
2 *13:10 *112:D 38.9943 
*END

*D_NET *14 0.000881688
*CONN
*I *120:A I *D sky130_fd_sc_hd__dlygate4sd3_1
*I *109:X O *D sky130_fd_sc_hd__a31o_1
*CAP
1 *120:A 0
2 *109:X 0.000290913
3 *14:10 0.000290913
4 *14:10 *98:A2 2.02872e-05
5 *14:10 *116:A 4.31263e-05
6 *14:10 *18:14 0.000226306
7 *14:10 *40:12 0
8 *14:10 *43:63 1.01436e-05
*RES
1 *109:X *14:10 42.9093 
2 *14:10 *120:A 38 
*END

*D_NET *15 0.00371074
*CONN
*I *88:B I *D sky130_fd_sc_hd__nand2_1
*I *98:A2 I *D sky130_fd_sc_hd__a31o_1
*I *109:A1 I *D sky130_fd_sc_hd__a31o_1
*I *89:A I *D sky130_fd_sc_hd__nor2_1
*I *87:Y O *D sky130_fd_sc_hd__inv_2
*CAP
1 *88:B 9.65867e-05
2 *98:A2 0.000176647
3 *109:A1 0
4 *89:A 0
5 *87:Y 0
6 *15:22 0.000392064
7 *15:14 0.000874755
8 *15:4 0.00040263
9 *88:B *88:A 0.000139352
10 *88:B *107:A3 0
11 *88:B *37:37 0
12 *98:A2 *109:A3 4.94041e-05
13 *98:A2 *18:14 0.00014196
14 *98:A2 *37:51 0.000128319
15 *15:14 *87:A 2.93845e-05
16 *15:14 *88:A 3.87658e-05
17 *15:14 *107:A3 1.14154e-05
18 *15:14 *18:10 5.50106e-05
19 *15:14 *32:10 0.000191497
20 *15:14 *37:25 0
21 *15:14 *37:33 2.65879e-05
22 *15:14 *37:37 1.42014e-05
23 *15:14 *37:51 2.49733e-05
24 *15:14 *45:20 0
25 *15:22 *109:A3 0.000355029
26 *15:22 *119:A 4.2573e-05
27 *15:22 *33:8 1.02387e-05
28 *15:22 *37:8 0.000193743
29 *15:22 *38:10 0.000109886
30 *15:22 *45:14 0.000185428
31 *15:22 *45:20 0
32 *8:13 *15:22 0
33 *14:10 *98:A2 2.02872e-05
*RES
1 *87:Y *15:4 23 
2 *15:4 *15:14 36.1107 
3 *15:14 *15:22 40.8129 
4 *15:22 *89:A 23 
5 *15:14 *109:A1 23 
6 *15:14 *98:A2 27.4536 
7 *15:4 *88:B 25.4236 
*END

*D_NET *16 0.00363212
*CONN
*I *92:A2 I *D sky130_fd_sc_hd__o21ai_1
*I *104:A1 I *D sky130_fd_sc_hd__o21ai_1
*I *88:Y O *D sky130_fd_sc_hd__nand2_1
*CAP
1 *92:A2 0.000285678
2 *104:A1 0
3 *88:Y 0.000193049
4 *16:20 0.00060351
5 *16:8 0.00108224
6 *92:A2 *91:B1 1.81385e-05
7 *92:A2 *36:27 0.000206251
8 *16:8 *88:A 1.94693e-05
9 *16:8 *34:8 0.000137651
10 *16:20 *104:B1 7.52566e-05
11 *16:20 *21:8 3.7122e-06
12 *16:20 *36:27 0.000423237
13 *16:20 *42:24 2.45549e-06
14 *111:D *92:A2 0.000108681
15 *111:D *16:20 0.000408138
16 *11:8 *92:A2 3.98887e-05
17 *13:10 *16:20 2.47664e-05
*RES
1 *88:Y *16:8 41.0036 
2 *16:8 *16:20 27.3043 
3 *16:20 *104:A1 23 
4 *16:8 *92:A2 44.3179 
*END

*D_NET *17 0.00539097
*CONN
*I *91:B1 I *D sky130_fd_sc_hd__a21oi_1
*I *97:B1 I *D sky130_fd_sc_hd__a21o_1
*I *109:B1 I *D sky130_fd_sc_hd__a31o_1
*I *103:B1 I *D sky130_fd_sc_hd__a21oi_1
*I *89:Y O *D sky130_fd_sc_hd__nor2_1
*CAP
1 *91:B1 0.000492681
2 *97:B1 1.0388e-05
3 *109:B1 0.000419165
4 *103:B1 0.000119745
5 *89:Y 0.000430704
6 *17:36 0.00070574
7 *17:21 0.000907767
8 *17:8 0.000836379
9 *91:B1 *18:42 3.54025e-05
10 *97:B1 *116:A 2.26406e-05
11 *97:B1 *36:27 2.26406e-05
12 *103:B1 *96:A 0
13 *103:B1 *28:10 4.21594e-06
14 *103:B1 *43:63 0.000191148
15 *109:B1 *45:14 0
16 *17:8 *89:B 2.93747e-05
17 *17:8 *105:A2 3.32734e-05
18 *17:8 *105:B1 0.000141954
19 *17:8 *106:A_N 0.000118107
20 *17:8 *106:B 2.20513e-07
21 *17:8 *44:38 8.52481e-05
22 *17:8 *44:42 0.000267178
23 *17:21 *96:A 0
24 *17:21 *18:10 0
25 *17:21 *23:10 0.000167402
26 *17:21 *43:63 0.000246412
27 *92:A2 *91:B1 1.81385e-05
28 *3:11 *109:B1 0
29 *3:11 *17:36 0
30 *11:8 *91:B1 8.50457e-05
*RES
1 *89:Y *17:8 46.7207 
2 *17:8 *103:B1 40.61 
3 *17:8 *17:21 14.6596 
4 *17:21 *109:B1 47.2357 
5 *17:21 *17:36 0.485333 
6 *17:36 *97:B1 46.3211 
7 *17:36 *91:B1 48.7389 
*END

*D_NET *18 0.00431109
*CONN
*I *91:A2 I *D sky130_fd_sc_hd__a21oi_1
*I *97:A2 I *D sky130_fd_sc_hd__a21o_1
*I *103:A2 I *D sky130_fd_sc_hd__a21oi_1
*I *90:Y O *D sky130_fd_sc_hd__nor2_1
*CAP
1 *91:A2 0
2 *97:A2 0
3 *103:A2 0
4 *90:Y 0.000158469
5 *18:42 0.00029731
6 *18:29 0.000435517
7 *18:20 0.000270798
8 *18:14 0.000511805
9 *18:10 0.000261269
10 *18:10 *23:10 6.33614e-05
11 *18:10 *40:12 0.00018745
12 *18:14 *98:B1 4.9662e-05
13 *18:14 *37:51 1.40958e-05
14 *18:14 *43:63 5.3304e-05
15 *18:20 *115:A 0.000250602
16 *18:20 *116:A 0.000175969
17 *18:20 *36:27 7.68703e-05
18 *18:20 *43:63 0.000502982
19 *18:20 *47:10 0.000166504
20 *18:29 *43:63 0.00017761
21 *18:42 *110:CLK 9.86175e-05
22 *18:42 *42:77 0
23 *91:B1 *18:42 3.54025e-05
24 *98:A2 *18:14 0.00014196
25 *110:D *18:42 4.0145e-05
26 *3:11 *18:20 5.79413e-06
27 *12:8 *18:14 7.44161e-06
28 *12:8 *18:29 4.3122e-05
29 *12:8 *18:42 3.7122e-06
30 *14:10 *18:14 0.000226306
31 *15:14 *18:10 5.50106e-05
32 *17:21 *18:10 0
*RES
1 *90:Y *18:10 41.2314 
2 *18:10 *18:14 18.48 
3 *18:14 *18:20 39.3007 
4 *18:20 *103:A2 23 
5 *18:14 *18:29 3.02429 
6 *18:29 *97:A2 23 
7 *18:29 *18:42 36.09 
8 *18:42 *91:A2 23 
*END

*D_NET *19 0.000140259
*CONN
*I *92:B1 I *D sky130_fd_sc_hd__o21ai_1
*I *91:Y O *D sky130_fd_sc_hd__a21oi_1
*CAP
1 *92:B1 5.40267e-05
2 *91:Y 5.40267e-05
3 *92:B1 *46:8 3.22051e-05
*RES
1 *91:Y *92:B1 47.1186 
*END

*D_NET *20 0.000499197
*CONN
*I *95:B I *D sky130_fd_sc_hd__nand2_1
*I *94:B I *D sky130_fd_sc_hd__or2_1
*I *93:X O *D sky130_fd_sc_hd__xor2_1
*CAP
1 *95:B 0
2 *94:B 0
3 *93:X 4.87587e-05
4 *20:14 6.80171e-05
5 *20:8 0.000116776
6 *20:8 *25:8 0
7 *20:8 *42:32 0
8 *20:8 *43:26 3.62905e-05
9 *20:14 *95:A 0.000166522
10 *20:14 *105:A3 4.21594e-06
11 *20:14 *43:37 5.86165e-05
*RES
1 *93:X *20:8 24.1186 
2 *20:8 *20:14 32.2579 
3 *20:14 *94:B 23 
4 *20:8 *95:B 23 
*END

*D_NET *21 0.00164689
*CONN
*I *96:A I *D sky130_fd_sc_hd__nand2_1
*I *102:A I *D sky130_fd_sc_hd__xnor2_1
*I *94:X O *D sky130_fd_sc_hd__or2_1
*CAP
1 *96:A 0.000200025
2 *102:A 0.000141687
3 *94:X 0.00013681
4 *21:8 0.000478522
5 *96:A *22:10 0.000145052
6 *96:A *28:10 6.48142e-05
7 *102:A *101:B 0
8 *102:A *102:B 0.000143655
9 *102:A *22:10 3.83778e-05
10 *102:A *25:8 0.000185434
11 *102:A *28:10 8.4047e-05
12 *102:A *43:26 2.4754e-05
13 *103:B1 *96:A 0
14 *16:20 *21:8 3.7122e-06
15 *17:21 *96:A 0
*RES
1 *94:X *21:8 39.5743 
2 *21:8 *102:A 41.9564 
3 *21:8 *96:A 42.0186 
*END

*D_NET *22 0.00102301
*CONN
*I *96:B I *D sky130_fd_sc_hd__nand2_1
*I *95:Y O *D sky130_fd_sc_hd__nand2_1
*CAP
1 *96:B 0
2 *95:Y 0.000305946
3 *22:10 0.000305946
4 *22:10 *95:A 7.53384e-06
5 *22:10 *101:B 6.77622e-05
6 *22:10 *102:B 5.37348e-06
7 *22:10 *105:B1 1.06693e-05
8 *22:10 *43:26 1.84959e-05
9 *22:10 *44:57 0.000117854
10 *96:A *22:10 0.000145052
11 *102:A *22:10 3.83778e-05
*RES
1 *95:Y *22:10 44.6493 
2 *22:10 *96:B 38 
*END

*D_NET *23 0.000912907
*CONN
*I *98:A3 I *D sky130_fd_sc_hd__a31o_1
*I *96:Y O *D sky130_fd_sc_hd__nand2_1
*CAP
1 *98:A3 0
2 *96:Y 0.000307975
3 *23:10 0.000307975
4 *23:10 *31:8 0
5 *23:10 *40:12 2.36844e-05
6 *23:10 *44:38 5.37348e-06
7 *23:10 *44:42 3.71369e-05
8 *17:21 *23:10 0.000167402
9 *18:10 *23:10 6.33614e-05
*RES
1 *96:Y *23:10 43.8207 
2 *23:10 *98:A3 38 
*END

*D_NET *24 0.000190843
*CONN
*I *98:B1 I *D sky130_fd_sc_hd__a31o_1
*I *97:X O *D sky130_fd_sc_hd__a21o_1
*CAP
1 *98:B1 4.57594e-05
2 *97:X 4.57594e-05
3 *12:8 *98:B1 4.9662e-05
4 *18:14 *98:B1 4.9662e-05
*RES
1 *97:X *98:B1 47.0979 
*END

*D_NET *25 0.000729136
*CONN
*I *101:A I *D sky130_fd_sc_hd__nand2_1
*I *99:X O *D sky130_fd_sc_hd__a21o_1
*CAP
1 *101:A 0
2 *99:X 0.000162384
3 *25:8 0.000162384
4 *25:8 *102:B 2.4754e-05
5 *25:8 *28:10 5.50106e-05
6 *25:8 *42:32 2.65879e-05
7 *25:8 *43:18 9.84851e-05
8 *25:8 *43:26 1.40958e-05
9 *102:A *25:8 0.000185434
10 *20:8 *25:8 0
*RES
1 *99:X *25:8 27.4536 
2 *25:8 *101:A 23 
*END

*D_NET *26 0.0019284
*CONN
*I *101:B I *D sky130_fd_sc_hd__nand2_1
*I *105:B1 I *D sky130_fd_sc_hd__o31ai_1
*I *100:Y O *D sky130_fd_sc_hd__nand3_1
*CAP
1 *101:B 9.88015e-05
2 *105:B1 0.000235471
3 *100:Y 0.000190893
4 *26:8 0.000525165
5 *101:B *95:A 6.32688e-05
6 *101:B *43:26 3.22879e-05
7 *105:B1 *95:A 3.47781e-05
8 *105:B1 *105:A3 0
9 *105:B1 *106:A_N 8.98731e-05
10 *105:B1 *41:12 0
11 *105:B1 *41:43 8.72173e-05
12 *105:B1 *44:42 0
13 *105:B1 *44:57 0.000219882
14 *26:8 *94:A 5.3304e-05
15 *26:8 *41:43 1.32939e-05
16 *26:8 *44:57 6.37748e-05
17 *102:A *101:B 0
18 *17:8 *105:B1 0.000141954
19 *22:10 *101:B 6.77622e-05
20 *22:10 *105:B1 1.06693e-05
*RES
1 *100:Y *26:8 40.5271 
2 *26:8 *105:B1 44.3593 
3 *26:8 *101:B 40.5271 
*END

*D_NET *27 0.000476289
*CONN
*I *102:B I *D sky130_fd_sc_hd__xnor2_1
*I *101:Y O *D sky130_fd_sc_hd__nand2_1
*CAP
1 *102:B 3.59513e-05
2 *101:Y 3.59513e-05
3 *102:B *43:26 0.000230604
4 *102:A *102:B 0.000143655
5 *22:10 *102:B 5.37348e-06
6 *25:8 *102:B 2.4754e-05
*RES
1 *101:Y *102:B 48.5271 
*END

*D_NET *28 0.00046853
*CONN
*I *104:A2 I *D sky130_fd_sc_hd__o21ai_1
*I *102:Y O *D sky130_fd_sc_hd__xnor2_1
*CAP
1 *104:A2 0
2 *102:Y 0.000130221
3 *28:10 0.000130221
4 *28:10 *43:63 0
5 *96:A *28:10 6.48142e-05
6 *102:A *28:10 8.4047e-05
7 *103:B1 *28:10 4.21594e-06
8 *25:8 *28:10 5.50106e-05
*RES
1 *102:Y *28:10 40.5271 
2 *28:10 *104:A2 38 
*END

*D_NET *29 0.000154641
*CONN
*I *104:B1 I *D sky130_fd_sc_hd__o21ai_1
*I *103:Y O *D sky130_fd_sc_hd__a21oi_1
*CAP
1 *104:B1 3.10221e-05
2 *103:Y 3.10221e-05
3 *13:10 *104:B1 1.73399e-05
4 *16:20 *104:B1 7.52566e-05
*RES
1 *103:Y *104:B1 47.1186 
*END

*D_NET *30 0.00100205
*CONN
*I *107:A2 I *D sky130_fd_sc_hd__a31o_1
*I *108:C I *D sky130_fd_sc_hd__nand4_1
*I *105:Y O *D sky130_fd_sc_hd__o31ai_1
*CAP
1 *107:A2 0
2 *108:C 0
3 *105:Y 0
4 *30:27 0.000122794
5 *30:12 0.000177048
6 *30:4 0.000299842
7 *30:12 *89:B 6.17437e-06
8 *30:12 *106:A_N 0.000109344
9 *30:12 *37:8 3.72639e-05
10 *30:12 *37:33 0
11 *30:12 *38:10 1.14452e-05
12 *30:27 *106:A_N 4.34745e-05
13 *30:27 *108:D 1.28818e-05
14 *30:27 *31:8 0.000108681
15 *30:27 *37:25 1.14452e-05
16 *30:27 *37:33 6.16531e-05
*RES
1 *105:Y *30:4 23 
2 *30:4 *30:12 33.2521 
3 *30:12 *108:C 23 
4 *30:4 *30:27 32.6773 
5 *30:27 *107:A2 23 
*END

*D_NET *31 0.000908394
*CONN
*I *107:A3 I *D sky130_fd_sc_hd__a31o_1
*I *108:D I *D sky130_fd_sc_hd__nand4_1
*I *106:Y O *D sky130_fd_sc_hd__nand2b_1
*CAP
1 *107:A3 5.4723e-05
2 *108:D 0.000143382
3 *106:Y 8.49781e-05
4 *31:10 0.000198105
5 *31:8 8.49781e-05
6 *107:A3 *37:33 4.2573e-05
7 *107:A3 *37:37 1.37232e-05
8 *108:D *37:25 5.87834e-05
9 *108:D *37:33 9.41704e-05
10 *88:B *107:A3 0
11 *15:14 *107:A3 1.14154e-05
12 *23:10 *31:8 0
13 *30:27 *108:D 1.28818e-05
14 *30:27 *31:8 0.000108681
*RES
1 *106:Y *31:8 39.5536 
2 *31:8 *31:10 15 
3 *31:10 *108:D 26.0243 
4 *31:10 *107:A3 25.0921 
*END

*D_NET *32 0.000530802
*CONN
*I *109:A2 I *D sky130_fd_sc_hd__a31o_1
*I *107:X O *D sky130_fd_sc_hd__a31o_1
*CAP
1 *109:A2 0
2 *107:X 0.000118025
3 *32:10 0.000118025
4 *32:10 *37:51 8.62876e-05
5 *32:10 *40:12 1.69668e-05
6 *15:14 *32:10 0.000191497
*RES
1 *107:X *32:10 40.5271 
2 *32:10 *109:A2 38 
*END

*D_NET *33 0.00119812
*CONN
*I *109:A3 I *D sky130_fd_sc_hd__a31o_1
*I *108:Y O *D sky130_fd_sc_hd__nand4_1
*CAP
1 *109:A3 0.000263968
2 *108:Y 5.4862e-05
3 *33:8 0.00031883
4 *109:A3 *37:51 2.3853e-05
5 *33:8 *38:10 8.62783e-05
6 *33:8 *45:20 3.56537e-05
7 *98:A2 *109:A3 4.94041e-05
8 *15:22 *109:A3 0.000355029
9 *15:22 *33:8 1.02387e-05
*RES
1 *108:Y *33:8 39.5536 
2 *33:8 *109:A3 43.4064 
*END

*D_NET *34 0.00322408
*CONN
*I *116:A I *D sky130_fd_sc_hd__clkbuf_16
*I *115:A I *D sky130_fd_sc_hd__clkbuf_16
*I *114:X O *D sky130_fd_sc_hd__clkbuf_16
*CAP
1 *116:A 0.000356306
2 *115:A 0.000114815
3 *114:X 0.000581128
4 *34:8 0.00105225
5 *115:A *36:27 5.30415e-05
6 *115:A *44:38 3.22879e-05
7 *116:A *36:14 1.94812e-05
8 *116:A *36:27 0.000233963
9 *116:A *40:12 0
10 *116:A *43:63 1.0402e-05
11 *97:B1 *116:A 2.26406e-05
12 *3:11 *115:A 0.000140415
13 *14:10 *116:A 4.31263e-05
14 *16:8 *34:8 0.000137651
15 *18:20 *115:A 0.000250602
16 *18:20 *116:A 0.000175969
*RES
1 *114:X *34:8 45.2914 
2 *34:8 *115:A 41.9357 
3 *34:8 *116:A 46.5136 
*END

*D_NET *35 0.00301545
*CONN
*I *110:CLK I *D sky130_fd_sc_hd__dfxtp_1
*I *112:CLK I *D sky130_fd_sc_hd__dfxtp_1
*I *115:X O *D sky130_fd_sc_hd__clkbuf_16
*CAP
1 *110:CLK 0.00054523
2 *112:CLK 0.000386037
3 *115:X 0.000128555
4 *35:8 0.00105982
5 *112:CLK *99:A2 3.85196e-05
6 *112:CLK *99:B1 5.95807e-05
7 *112:CLK *43:14 0.000231497
8 *112:CLK *44:38 0.000377181
9 *112:D *112:CLK 9.04092e-05
10 *18:42 *110:CLK 9.86175e-05
*RES
1 *115:X *35:8 39.5743 
2 *35:8 *112:CLK 48.1086 
3 *35:8 *110:CLK 46.3479 
*END

*D_NET *36 0.0045148
*CONN
*I *111:CLK I *D sky130_fd_sc_hd__dfxtp_1
*I *113:CLK I *D sky130_fd_sc_hd__dfxtp_1
*I *116:X O *D sky130_fd_sc_hd__clkbuf_16
*CAP
1 *111:CLK 0
2 *113:CLK 0
3 *116:X 0.000504226
4 *36:27 0.000487501
5 *36:14 0.000537696
6 *36:6 0.00152942
7 *36:14 *40:8 5.3304e-05
8 *36:14 *40:12 0.000141869
9 *92:A2 *36:27 0.000206251
10 *97:B1 *36:27 2.26406e-05
11 *111:D *36:27 4.07715e-05
12 *115:A *36:27 5.30415e-05
13 *116:A *36:14 1.94812e-05
14 *116:A *36:27 0.000233963
15 *3:11 *36:27 0.000152241
16 *13:10 *36:27 3.22879e-05
17 *16:20 *36:27 0.000423237
18 *18:20 *36:27 7.68703e-05
*RES
1 *116:X *36:6 29.3386 
2 *36:6 *36:14 37.7679 
3 *36:14 *113:CLK 23 
4 *36:6 *36:27 44.1479 
5 *36:27 *111:CLK 23 
*END

*D_NET *37 0.00410763
*CONN
*I *107:A1 I *D sky130_fd_sc_hd__a31o_1
*I *88:A I *D sky130_fd_sc_hd__nand2_1
*I *90:A I *D sky130_fd_sc_hd__nor2_1
*I *98:A1 I *D sky130_fd_sc_hd__a31o_1
*I *108:A I *D sky130_fd_sc_hd__nand4_1
*I *121:X O *D sky130_fd_sc_hd__buf_1
*CAP
1 *107:A1 0
2 *88:A 0.000233452
3 *90:A 0
4 *98:A1 0
5 *108:A 4.74765e-05
6 *121:X 0.000164016
7 *37:51 0.000289117
8 *37:37 0.000307662
9 *37:33 0.000522734
10 *37:25 0.000519358
11 *37:10 0.000296098
12 *37:8 0.000164016
13 *88:A *87:A 5.67058e-05
14 *37:8 *38:10 6.48049e-05
15 *37:8 *41:12 8.53726e-05
16 *37:25 *45:20 5.33597e-05
17 *37:33 *38:10 0
18 *37:33 *45:20 1.14452e-05
19 *37:51 *40:12 8.16253e-05
20 *88:B *88:A 0.000139352
21 *88:B *37:37 0
22 *98:A2 *37:51 0.000128319
23 *107:A3 *37:33 4.2573e-05
24 *107:A3 *37:37 1.37232e-05
25 *108:D *37:25 5.87834e-05
26 *108:D *37:33 9.41704e-05
27 *109:A3 *37:51 2.3853e-05
28 *8:13 *37:8 0
29 *12:8 *37:51 0.000181131
30 *15:14 *88:A 3.87658e-05
31 *15:14 *37:25 0
32 *15:14 *37:33 2.65879e-05
33 *15:14 *37:37 1.42014e-05
34 *15:14 *37:51 2.49733e-05
35 *15:22 *37:8 0.000193743
36 *16:8 *88:A 1.94693e-05
37 *18:14 *37:51 1.40958e-05
38 *30:12 *37:8 3.72639e-05
39 *30:12 *37:33 0
40 *30:27 *37:25 1.14452e-05
41 *30:27 *37:33 6.16531e-05
42 *32:10 *37:51 8.62876e-05
*RES
1 *121:X *37:8 42.7229 
2 *37:8 *37:10 15 
3 *37:10 *108:A 23.6214 
4 *37:10 *37:25 19.7021 
5 *37:25 *37:33 19.5882 
6 *37:33 *37:37 0.880357 
7 *37:37 *37:51 36.8771 
8 *37:51 *98:A1 23 
9 *37:37 *90:A 23 
10 *37:33 *88:A 27.6918 
11 *37:25 *107:A1 38 
*END

*D_NET *38 0.000586394
*CONN
*I *108:B I *D sky130_fd_sc_hd__nand4_1
*I *119:X O *D sky130_fd_sc_hd__dlygate4sd3_1
*CAP
1 *108:B 0
2 *119:X 0.00015699
3 *38:10 0.00015699
4 *38:10 *45:20 0
5 *15:22 *38:10 0.000109886
6 *30:12 *38:10 1.14452e-05
7 *33:8 *38:10 8.62783e-05
8 *37:8 *38:10 6.48049e-05
9 *37:33 *38:10 0
*RES
1 *119:X *38:10 41.5836 
2 *38:10 *108:B 38 
*END

*D_NET *39 0.000237497
*CONN
*I *113:D I *D sky130_fd_sc_hd__dfxtp_1
*I *120:X O *D sky130_fd_sc_hd__dlygate4sd3_1
*CAP
1 *113:D 0.000118748
2 *120:X 0.000118748
*RES
1 *120:X *113:D 47.8902 
*END

*D_NET *40 0.00197663
*CONN
*I *87:A I *D sky130_fd_sc_hd__inv_2
*I *90:B I *D sky130_fd_sc_hd__nor2_1
*I *122:X O *D sky130_fd_sc_hd__buf_1
*CAP
1 *87:A 1.39009e-05
2 *90:B 0
3 *122:X 0.000282785
4 *40:12 0.000410037
5 *40:8 0.000678921
6 *40:12 *43:63 0
7 *88:A *87:A 5.67058e-05
8 *116:A *40:12 0
9 *14:10 *40:12 0
10 *15:14 *87:A 2.93845e-05
11 *18:10 *40:12 0.00018745
12 *23:10 *40:12 2.36844e-05
13 *32:10 *40:12 1.69668e-05
14 *36:14 *40:8 5.3304e-05
15 *36:14 *40:12 0.000141869
16 *37:51 *40:12 8.16253e-05
*RES
1 *122:X *40:8 42.9093 
2 *40:8 *40:12 23.2443 
3 *40:12 *90:B 23 
4 *40:12 *87:A 23.6214 
*END

*D_NET *41 0.00265657
*CONN
*I *94:A I *D sky130_fd_sc_hd__or2_1
*I *95:A I *D sky130_fd_sc_hd__nand2_1
*I *106:A_N I *D sky130_fd_sc_hd__nand2b_1
*I *105:A1 I *D sky130_fd_sc_hd__o31ai_1
*I *89:B I *D sky130_fd_sc_hd__nor2_1
*I *123:X O *D sky130_fd_sc_hd__buf_1
*CAP
1 *94:A 2.32701e-05
2 *95:A 9.5128e-05
3 *106:A_N 0.000202088
4 *105:A1 0
5 *89:B 3.01709e-05
6 *123:X 0
7 *41:43 0.000333237
8 *41:12 0.000376089
9 *41:4 0.000358668
10 *94:A *44:57 5.3304e-05
11 *95:A *43:26 3.22879e-05
12 *106:A_N *106:B 1.28818e-05
13 *106:A_N *44:42 3.42004e-05
14 *41:12 *100:A 6.17437e-06
15 *41:12 *105:A2 0.000114092
16 *41:12 *44:57 0
17 *41:43 *100:A 2.32101e-05
18 *41:43 *105:A3 0
19 *41:43 *44:57 5.41288e-05
20 *101:B *95:A 6.32688e-05
21 *105:B1 *95:A 3.47781e-05
22 *105:B1 *106:A_N 8.98731e-05
23 *105:B1 *41:12 0
24 *105:B1 *41:43 8.72173e-05
25 *8:13 *41:12 0
26 *17:8 *89:B 2.93747e-05
27 *17:8 *106:A_N 0.000118107
28 *20:14 *95:A 0.000166522
29 *22:10 *95:A 7.53384e-06
30 *26:8 *94:A 5.3304e-05
31 *26:8 *41:43 1.32939e-05
32 *30:12 *89:B 6.17437e-06
33 *30:12 *106:A_N 0.000109344
34 *30:27 *106:A_N 4.34745e-05
35 *37:8 *41:12 8.53726e-05
*RES
1 *123:X *41:4 23 
2 *41:4 *41:12 33.2314 
3 *41:12 *89:B 23.6214 
4 *41:12 *105:A1 23 
5 *41:12 *106:A_N 29.0486 
6 *41:4 *41:43 19.205 
7 *41:43 *95:A 40.8793 
8 *41:43 *94:A 38.6214 
*END

*D_NET *42 0.0075937
*CONN
*I *117:A I *D sky130_fd_sc_hd__dlygate4sd3_1
*I *91:A1 I *D sky130_fd_sc_hd__a21oi_1
*I *124:A I *D sky130_fd_sc_hd__buf_2
*I *99:A1 I *D sky130_fd_sc_hd__a21o_1
*I *93:A I *D sky130_fd_sc_hd__xor2_1
*I *105:A2 I *D sky130_fd_sc_hd__o31ai_1
*I *100:A I *D sky130_fd_sc_hd__nand3_1
*I *110:Q O *D sky130_fd_sc_hd__dfxtp_1
*CAP
1 *117:A 4.01155e-05
2 *91:A1 0.000366864
3 *124:A 0
4 *99:A1 0
5 *93:A 0
6 *105:A2 0.000122757
7 *100:A 3.2539e-05
8 *110:Q 5.45698e-05
9 *42:77 0.000652234
10 *42:36 0.000274011
11 *42:32 0.000818732
12 *42:24 0.0011755
13 *42:14 0.000944608
14 *42:8 0.000768945
15 *91:A1 *46:8 1.2439e-05
16 *105:A2 *105:A3 7.91596e-05
17 *42:14 *43:85 2.02872e-05
18 *42:24 *43:14 0.000268824
19 *42:24 *43:63 0
20 *42:24 *43:85 5.54294e-05
21 *42:32 *99:A2 0
22 *42:32 *99:B1 0.000118941
23 *42:32 *43:18 0.000145535
24 *42:32 *43:26 0.000747962
25 *42:36 *105:A3 1.22803e-05
26 *42:36 *43:37 8.76088e-05
27 *111:D *42:24 1.78697e-05
28 *4:8 *42:14 0.000136028
29 *5:10 *42:14 0.000262856
30 *8:13 *105:A2 0
31 *13:10 *42:24 0.00017181
32 *16:20 *42:24 2.45549e-06
33 *17:8 *105:A2 3.32734e-05
34 *18:42 *42:77 0
35 *20:8 *42:32 0
36 *25:8 *42:32 2.65879e-05
37 *41:12 *100:A 6.17437e-06
38 *41:12 *105:A2 0.000114092
39 *41:43 *100:A 2.32101e-05
*RES
1 *110:Q *42:8 38.6214 
2 *42:8 *42:14 24.9429 
3 *42:14 *42:24 39.2179 
4 *42:24 *42:32 14.0029 
5 *42:32 *42:36 17.61 
6 *42:36 *100:A 38.6214 
7 *42:36 *105:A2 40.6411 
8 *42:32 *93:A 23 
9 *42:24 *99:A1 23 
10 *42:14 *124:A 23 
11 *42:8 *42:77 19.06 
12 *42:77 *91:A1 27.4329 
13 *42:77 *117:A 23.8493 
*END

*D_NET *43 0.00844633
*CONN
*I *125:A I *D sky130_fd_sc_hd__buf_2
*I *99:A2 I *D sky130_fd_sc_hd__a21o_1
*I *97:A1 I *D sky130_fd_sc_hd__a21o_1
*I *105:A3 I *D sky130_fd_sc_hd__o31ai_1
*I *100:B I *D sky130_fd_sc_hd__nand3_1
*I *93:B I *D sky130_fd_sc_hd__xor2_1
*I *111:Q O *D sky130_fd_sc_hd__dfxtp_1
*CAP
1 *125:A 0
2 *99:A2 2.97809e-05
3 *97:A1 0
4 *105:A3 0.000121359
5 *100:B 0
6 *93:B 0
7 *111:Q 0
8 *43:85 0.000287123
9 *43:63 0.000654867
10 *43:37 0.000239782
11 *43:26 0.000365319
12 *43:18 0.00112642
13 *43:14 0.000724006
14 *43:4 0.000756696
15 *99:A2 *99:B1 5.90675e-06
16 *43:14 *99:B1 2.72475e-06
17 *43:14 *44:38 8.4047e-05
18 *43:18 *99:B1 4.34488e-06
19 *43:63 *47:10 0.000168744
20 *95:A *43:26 3.22879e-05
21 *101:B *43:26 3.22879e-05
22 *102:A *43:26 2.4754e-05
23 *102:B *43:26 0.000230604
24 *103:B1 *43:63 0.000191148
25 *105:A2 *105:A3 7.91596e-05
26 *105:B1 *105:A3 0
27 *112:CLK *99:A2 3.85196e-05
28 *112:CLK *43:14 0.000231497
29 *116:A *43:63 1.0402e-05
30 *5:10 *43:85 0.000148391
31 *6:10 *43:85 0.000297582
32 *13:10 *43:26 0
33 *14:10 *43:63 1.01436e-05
34 *17:21 *43:63 0.000246412
35 *18:14 *43:63 5.3304e-05
36 *18:20 *43:63 0.000502982
37 *18:29 *43:63 0.00017761
38 *20:8 *43:26 3.62905e-05
39 *20:14 *105:A3 4.21594e-06
40 *20:14 *43:37 5.86165e-05
41 *22:10 *43:26 1.84959e-05
42 *25:8 *43:18 9.84851e-05
43 *25:8 *43:26 1.40958e-05
44 *28:10 *43:63 0
45 *40:12 *43:63 0
46 *41:43 *105:A3 0
47 *42:14 *43:85 2.02872e-05
48 *42:24 *43:14 0.000268824
49 *42:24 *43:63 0
50 *42:24 *43:85 5.54294e-05
51 *42:32 *99:A2 0
52 *42:32 *43:18 0.000145535
53 *42:32 *43:26 0.000747962
54 *42:36 *105:A3 1.22803e-05
55 *42:36 *43:37 8.76088e-05
*RES
1 *111:Q *43:4 23 
2 *43:4 *43:14 37.2086 
3 *43:14 *43:18 18.48 
4 *43:18 *43:26 24.8186 
5 *43:26 *93:B 23 
6 *43:26 *43:37 18.2314 
7 *43:37 *100:B 38 
8 *43:37 *105:A3 40.61 
9 *43:18 *43:63 29.7071 
10 *43:63 *97:A1 23 
11 *43:14 *99:A2 23.8493 
12 *43:4 *43:85 36.7943 
13 *43:85 *125:A 23 
*END

*D_NET *44 0.00587504
*CONN
*I *118:A I *D sky130_fd_sc_hd__dlygate4sd3_1
*I *100:C I *D sky130_fd_sc_hd__nand3_1
*I *106:B I *D sky130_fd_sc_hd__nand2b_1
*I *126:A I *D sky130_fd_sc_hd__buf_2
*I *99:B1 I *D sky130_fd_sc_hd__a21o_1
*I *112:Q O *D sky130_fd_sc_hd__dfxtp_1
*CAP
1 *118:A 0
2 *100:C 0
3 *106:B 4.30328e-06
4 *126:A 0.00012784
5 *99:B1 0.000445653
6 *112:Q 0.000294443
7 *44:57 0.00022207
8 *44:42 0.000348792
9 *44:38 0.000984896
10 *44:19 0.000990317
11 *44:6 0.000740096
12 *44:38 *47:10 4.96717e-05
13 *94:A *44:57 5.3304e-05
14 *99:A2 *99:B1 5.90675e-06
15 *105:B1 *44:42 0
16 *105:B1 *44:57 0.000219882
17 *106:A_N *106:B 1.28818e-05
18 *106:A_N *44:42 3.42004e-05
19 *112:CLK *99:B1 5.95807e-05
20 *112:CLK *44:38 0.000377181
21 *112:D *99:B1 3.07604e-05
22 *115:A *44:38 3.22879e-05
23 *6:10 *44:38 0
24 *17:8 *106:B 2.20513e-07
25 *17:8 *44:38 8.52481e-05
26 *17:8 *44:42 0.000267178
27 *22:10 *44:57 0.000117854
28 *23:10 *44:38 5.37348e-06
29 *23:10 *44:42 3.71369e-05
30 *26:8 *44:57 6.37748e-05
31 *41:12 *44:57 0
32 *41:43 *44:57 5.41288e-05
33 *42:32 *99:B1 0.000118941
34 *43:14 *99:B1 2.72475e-06
35 *43:14 *44:38 8.4047e-05
36 *43:18 *99:B1 4.34488e-06
*RES
1 *112:Q *44:6 26.48 
2 *44:6 *99:B1 30.2086 
3 *44:6 *44:19 15 
4 *44:19 *126:A 40.2579 
5 *44:19 *44:38 30.9707 
6 *44:38 *44:42 3.50071 
7 *44:42 *106:B 23.1502 
8 *44:42 *44:57 35.365 
9 *44:57 *100:C 23 
10 *44:38 *118:A 23 
*END

*D_NET *45 0.0019779
*CONN
*I *127:A I *D sky130_fd_sc_hd__buf_2
*I *119:A I *D sky130_fd_sc_hd__dlygate4sd3_1
*I *107:B1 I *D sky130_fd_sc_hd__a31o_1
*I *113:Q O *D sky130_fd_sc_hd__dfxtp_1
*CAP
1 *127:A 8.83236e-05
2 *119:A 2.67863e-05
3 *107:B1 0
4 *113:Q 0.00012572
5 *45:20 0.000168899
6 *45:14 0.000446462
7 *45:8 0.000464821
8 *109:B1 *45:14 0
9 *9:11 *127:A 0.000169674
10 *9:11 *45:14 0.000158759
11 *15:14 *45:20 0
12 *15:22 *119:A 4.2573e-05
13 *15:22 *45:14 0.000185428
14 *15:22 *45:20 0
15 *33:8 *45:20 3.56537e-05
16 *37:25 *45:20 5.33597e-05
17 *37:33 *45:20 1.14452e-05
18 *38:10 *45:20 0
*RES
1 *113:Q *45:8 39.5743 
2 *45:8 *45:14 20.7171 
3 *45:14 *45:20 33.3143 
4 *45:20 *107:B1 23 
5 *45:14 *119:A 23.6214 
6 *45:8 *127:A 40.2579 
*END

*D_NET *46 0.000845857
*CONN
*I *92:A1 I *D sky130_fd_sc_hd__o21ai_1
*I *117:X O *D sky130_fd_sc_hd__dlygate4sd3_1
*CAP
1 *92:A1 0
2 *117:X 0.000400606
3 *46:8 0.000400606
4 *91:A1 *46:8 1.2439e-05
5 *92:B1 *46:8 3.22051e-05
*RES
1 *117:X *46:8 28.6343 
2 *46:8 *92:A1 23 
*END

*D_NET *47 0.000672633
*CONN
*I *103:A1 I *D sky130_fd_sc_hd__a21oi_1
*I *118:X O *D sky130_fd_sc_hd__dlygate4sd3_1
*CAP
1 *103:A1 0
2 *118:X 0.000143856
3 *47:10 0.000143856
4 *18:20 *47:10 0.000166504
5 *43:63 *47:10 0.000168744
6 *44:38 *47:10 4.96717e-05
*RES
1 *118:X *47:10 41.3557 
2 *47:10 *103:A1 38 
*END
