*SPEF "ieee 1481-1999"
*DESIGN "counter_dut"
*DATE "10:33:39 Wednesday December 04, 2024"
*VENDOR "The OpenROAD Project"
*PROGRAM "OpenROAD"
*VERSION "edf00dff99f6c40d67a30c0e22a8191c5d2ed9d6"
*DESIGN_FLOW "NAME_SCOPE LOCAL" "PIN_CAP NONE"
*DIVIDER /
*DELIMITER :
*BUS_DELIMITER []
*T_UNIT 1 NS
*C_UNIT 1 PF
*R_UNIT 1 OHM
*L_UNIT 1 HENRY

*NAME_MAP
*1 clk
*2 counter[0]
*3 counter[1]
*4 counter[2]
*5 counter[3]
*6 enable
*7 reset
*8 up_down
*11 _00_
*12 _01_
*13 _02_
*14 _03_
*15 _04_
*16 _05_
*17 _06_
*18 _07_
*19 _08_
*20 _09_
*21 _10_
*22 _11_
*23 _12_
*24 _13_
*25 _14_
*26 _15_
*27 _16_
*28 _17_
*29 _18_
*30 _19_
*31 _20_
*32 _21_
*33 _22_
*34 clknet_0_clk
*35 clknet_1_0__leaf_clk
*36 clknet_1_1__leaf_clk
*37 net1
*38 net2
*39 net3
*40 net4
*41 net5
*42 net6
*43 net7
*44 _23_
*45 _24_
*46 _25_
*47 _26_
*48 _27_
*49 _28_
*50 _29_
*51 _30_
*52 _31_
*53 _32_
*54 _33_
*55 _34_
*56 _35_
*57 _36_
*58 _37_
*59 _38_
*60 _39_
*61 _40_
*62 _41_
*63 _42_
*64 _43_
*65 _44_
*66 _45_
*67 _46_
*68 _47_
*69 _48_
*70 _49_
*71 clkbuf_0_clk
*72 clkbuf_1_0__f_clk
*73 clkbuf_1_1__f_clk
*74 input1
*75 input2
*76 input3
*77 output4
*78 output5
*79 output6
*80 output7

*PORTS
clk I
counter[0] O
counter[1] O
counter[2] O
counter[3] O
enable I
reset I
up_down I

*D_NET *1 0.00158081
*CONN
*P clk I
*I *71:A I *D sky130_fd_sc_hd__clkbuf_16
*CAP
1 clk 0.000556616
2 *71:A 0.000556616
3 *71:A *54:A1 7.6564e-05
4 *71:A *55:A3 0.000142875
5 *71:A *74:A 6.63071e-05
6 *71:A *76:A 5.40137e-05
7 *71:A *17:16 0.000127821
*RES
1 clk *71:A 20.7938 
*END

*D_NET *2 0.000308496
*CONN
*P counter[0] O
*I *77:X O *D sky130_fd_sc_hd__buf_1
*CAP
1 counter[0] 0.0001215
2 *77:X 0.0001215
3 counter[0] counter[1] 5.26371e-05
4 counter[0] *42:17 1.28585e-05
*RES
1 *77:X counter[0] 17.9067 
*END

*D_NET *3 0.000449799
*CONN
*P counter[1] O
*I *78:X O *D sky130_fd_sc_hd__buf_1
*CAP
1 counter[1] 0.000152667
2 *78:X 0.000152667
3 counter[1] counter[2] 5.40205e-05
4 counter[1] *42:17 3.78069e-05
5 counter[0] counter[1] 5.26371e-05
*RES
1 *78:X counter[1] 18.5138 
*END

*D_NET *4 0.000376214
*CONN
*P counter[2] O
*I *79:X O *D sky130_fd_sc_hd__buf_1
*CAP
1 counter[2] 0.000161097
2 *79:X 0.000161097
3 counter[1] counter[2] 5.40205e-05
*RES
1 *79:X counter[2] 18.2102 
*END

*D_NET *5 0.000306255
*CONN
*P counter[3] O
*I *80:X O *D sky130_fd_sc_hd__buf_1
*CAP
1 counter[3] 0.000126121
2 *80:X 0.000126121
3 counter[3] *75:A 5.40137e-05
*RES
1 *80:X counter[3] 17.9067 
*END

*D_NET *6 0.000726815
*CONN
*P enable I
*I *74:A I *D sky130_fd_sc_hd__buf_1
*CAP
1 enable 0.000210676
2 *74:A 0.000210676
3 *74:A *70:CLK 0.0001434
4 *74:A *75:A 6.68437e-05
5 *74:A *38:10 2.89114e-05
6 *71:A *74:A 6.63071e-05
*RES
1 enable *74:A 20.443 
*END

*D_NET *7 0.000445495
*CONN
*P reset I
*I *75:A I *D sky130_fd_sc_hd__buf_1
*CAP
1 reset 0.000132351
2 *75:A 0.000132351
3 *75:A *70:CLK 5.99352e-05
4 counter[3] *75:A 5.40137e-05
5 *74:A *75:A 6.68437e-05
*RES
1 reset *75:A 19.1209 
*END

*D_NET *8 0.00048689
*CONN
*P up_down I
*I *76:A I *D sky130_fd_sc_hd__buf_1
*CAP
1 up_down 0.000216438
2 *76:A 0.000216438
3 *76:A *46:B 0
4 *71:A *76:A 5.40137e-05
*RES
1 up_down *76:A 19.7281 
*END

*D_NET *11 0.00150977
*CONN
*I *67:D I *D sky130_fd_sc_hd__dfxtp_1
*I *49:Y O *D sky130_fd_sc_hd__o21ai_1
*CAP
1 *67:D 0.000507989
2 *49:Y 0.000507989
3 *67:D *45:A 2.51343e-06
4 *67:D *60:A1 2.13481e-06
5 *67:D *61:B1 9.90367e-05
6 *67:D *67:CLK 0.000255056
7 *67:D *69:CLK 6.75007e-05
8 *67:D *69:D 3.22964e-05
9 *67:D *18:31 2.82447e-05
10 *67:D *40:6 7.01199e-06
*RES
1 *49:Y *67:D 39.6045 
*END

*D_NET *12 0.000632655
*CONN
*I *68:D I *D sky130_fd_sc_hd__dfxtp_1
*I *55:X O *D sky130_fd_sc_hd__a31o_1
*CAP
1 *68:D 0.00024765
2 *55:X 0.00024765
3 *68:D *46:B 0.000136122
4 *68:D *55:A3 0
5 *68:D *63:A_N 0
6 *68:D *39:6 1.23419e-06
7 *68:D *39:10 0
*RES
1 *55:X *68:D 33.3723 
*END

*D_NET *13 0.000746314
*CONN
*I *69:D I *D sky130_fd_sc_hd__dfxtp_1
*I *61:Y O *D sky130_fd_sc_hd__o21ai_1
*CAP
1 *69:D 0.000142228
2 *61:Y 0.000142228
3 *69:D *48:A2 0.000105696
4 *69:D *60:A1 0.000193956
5 *69:D *67:CLK 9.25014e-06
6 *69:D *69:CLK 9.4724e-05
7 *69:D *73:A 2.59355e-05
8 *67:D *69:D 3.22964e-05
*RES
1 *61:Y *69:D 31.5152 
*END

*D_NET *14 0.000400407
*CONN
*I *70:D I *D sky130_fd_sc_hd__dfxtp_1
*I *66:X O *D sky130_fd_sc_hd__a31o_1
*CAP
1 *70:D 0.000134954
2 *66:X 0.000134954
3 *70:D *66:A2 2.78822e-05
4 *70:D *70:CLK 0
5 *70:D *80:A 8.49318e-05
6 *70:D *38:10 1.76859e-05
*RES
1 *66:X *70:D 30.9438 
*END

*D_NET *15 0.00256612
*CONN
*I *66:A1 I *D sky130_fd_sc_hd__a31o_1
*I *45:B I *D sky130_fd_sc_hd__nand2_1
*I *55:A2 I *D sky130_fd_sc_hd__a31o_1
*I *46:A I *D sky130_fd_sc_hd__nor2_1
*I *44:Y O *D sky130_fd_sc_hd__inv_2
*CAP
1 *66:A1 0.000116351
2 *45:B 0.000162335
3 *55:A2 0
4 *46:A 7.59744e-05
5 *44:Y 3.4524e-05
6 *15:30 0.000430882
7 *15:14 0.000171015
8 *15:6 0.00028176
9 *45:B *66:A3 0
10 *45:B *66:B1 0
11 *45:B *80:A 1.58163e-05
12 *45:B *18:10 2.48062e-05
13 *45:B *18:31 5.33433e-05
14 *45:B *43:6 3.30352e-05
15 *46:A *44:A 9.90431e-05
16 *46:A *55:A3 3.6705e-05
17 *46:A *37:6 0
18 *46:A *37:15 0
19 *66:A1 *66:A2 6.70991e-05
20 *66:A1 *66:A3 2.44318e-05
21 *66:A1 *66:B1 5.52238e-05
22 *66:A1 *80:A 2.72859e-05
23 *66:A1 *43:25 8.15095e-05
24 *15:6 *55:A3 8.36572e-05
25 *15:6 *55:B1 1.92905e-05
26 *15:6 *64:A1 2.51343e-06
27 *15:14 *44:A 4.37542e-05
28 *15:14 *55:A3 0.000137983
29 *15:14 *55:B1 7.80714e-06
30 *15:14 *64:A1 2.15245e-05
31 *15:14 *37:15 1.07719e-05
32 *15:14 *37:23 5.4826e-05
33 *15:30 *44:A 0
34 *15:30 *55:B1 8.03794e-05
35 *15:30 *64:A3 7.69776e-06
36 *15:30 *65:B 2.22043e-05
37 *15:30 *66:A2 5.20904e-05
38 *15:30 *17:58 0
39 *15:30 *37:23 4.11786e-05
40 *15:30 *43:25 0.000189299
*RES
1 *44:Y *15:6 10.2464 
2 *15:6 *15:14 11.3929 
3 *15:14 *46:A 11.0679 
4 *15:14 *55:A2 9.3 
5 *15:6 *15:30 8.57143 
6 *15:30 *45:B 17.2107 
7 *15:30 *66:A1 17.425 
*END

*D_NET *16 0.000835872
*CONN
*I *49:A2 I *D sky130_fd_sc_hd__o21ai_1
*I *61:A1 I *D sky130_fd_sc_hd__o21ai_1
*I *45:Y O *D sky130_fd_sc_hd__nand2_1
*CAP
1 *49:A2 0
2 *61:A1 0.000103092
3 *45:Y 7.11304e-05
4 *16:6 0.000174222
5 *61:A1 *45:A 0.000153762
6 *61:A1 *49:A1 0.000179656
7 *61:A1 *49:B1 2.49484e-05
8 *61:A1 *66:A3 1.17968e-05
9 *61:A1 *17:24 4.87854e-05
10 *61:A1 *18:31 7.07155e-06
11 *16:6 *45:A 4.58194e-05
12 *16:6 *66:A3 0
13 *16:6 *18:31 1.55885e-05
*RES
1 *45:Y *16:6 10.6571 
2 *16:6 *61:A1 21.8 
3 *16:6 *49:A2 9.3 
*END

*D_NET *17 0.00459662
*CONN
*I *66:B1 I *D sky130_fd_sc_hd__a31o_1
*I *54:B1 I *D sky130_fd_sc_hd__a21o_1
*I *48:B1 I *D sky130_fd_sc_hd__a21oi_1
*I *60:B1 I *D sky130_fd_sc_hd__a21oi_1
*I *46:Y O *D sky130_fd_sc_hd__nor2_1
*CAP
1 *66:B1 0.000311445
2 *54:B1 0
3 *48:B1 0.000177138
4 *60:B1 5.69902e-05
5 *46:Y 0.000461454
6 *17:58 0.000360557
7 *17:24 0.000467089
8 *17:16 0.000743528
9 *48:B1 *48:A1 3.18676e-05
10 *48:B1 *48:A2 0.000279953
11 *48:B1 *49:B1 2.51343e-06
12 *48:B1 *61:A2 3.90513e-05
13 *48:B1 *72:A 3.906e-05
14 *48:B1 *73:A 0.000236605
15 *48:B1 *18:31 0
16 *48:B1 *34:6 1.39726e-05
17 *48:B1 *40:10 2.13481e-06
18 *60:B1 *49:B1 0.000179663
19 *60:B1 *61:B1 8.46172e-05
20 *60:B1 *65:B 0
21 *60:B1 *73:A 3.51442e-05
22 *66:B1 *54:A1 2.22631e-05
23 *66:B1 *66:A2 0
24 *66:B1 *66:A3 0.000274288
25 *66:B1 *80:A 3.06878e-06
26 *66:B1 *18:31 8.32242e-05
27 *66:B1 *43:6 1.05947e-05
28 *66:B1 *43:25 0
29 *17:16 *54:A1 3.52391e-05
30 *17:16 *55:B1 0
31 *17:16 *64:A3 0.0001235
32 *17:16 *70:CLK 9.15186e-06
33 *17:24 *64:A2 0.000137983
34 *17:24 *65:B 7.05946e-05
35 *17:24 *18:31 0
36 *17:24 *37:34 2.49995e-05
37 *17:58 *54:A1 3.72204e-05
38 *17:58 *65:B 9.87983e-06
39 *17:58 *43:25 0
40 *45:B *66:B1 0
41 *61:A1 *17:24 4.87854e-05
42 *66:A1 *66:B1 5.52238e-05
43 *71:A *17:16 0.000127821
44 *15:30 *17:58 0
*RES
1 *46:Y *17:16 22.8366 
2 *17:16 *17:24 9.28571 
3 *17:24 *60:B1 20.9786 
4 *17:24 *48:B1 24.5143 
5 *17:16 *17:58 1.03571 
6 *17:58 *54:B1 13.8 
7 *17:58 *66:B1 21.0679 
*END

*D_NET *18 0.00327177
*CONN
*I *60:A2 I *D sky130_fd_sc_hd__a21oi_1
*I *48:A2 I *D sky130_fd_sc_hd__a21oi_1
*I *54:A2 I *D sky130_fd_sc_hd__a21o_1
*I *47:Y O *D sky130_fd_sc_hd__nor2_1
*CAP
1 *60:A2 0
2 *48:A2 0.000146236
3 *54:A2 6.85155e-05
4 *47:Y 0.000222926
5 *18:31 0.000455639
6 *18:10 0.000600844
7 *48:A2 *61:A2 1.91418e-05
8 *48:A2 *61:B1 0.00020042
9 *48:A2 *67:CLK 0.000246376
10 *48:A2 *69:CLK 1.17968e-05
11 *48:A2 *73:A 1.91414e-05
12 *54:A2 *65:B 9.60875e-05
13 *54:A2 *65:C 6.05161e-06
14 *18:10 *64:A1 9.22103e-06
15 *18:10 *64:A2 8.16115e-05
16 *18:10 *64:A3 1.26529e-05
17 *18:10 *65:B 4.35567e-05
18 *18:10 *66:A2 5.71472e-05
19 *18:10 *80:A 0
20 *18:10 *37:15 6.4443e-05
21 *18:10 *38:10 5.52238e-05
22 *18:31 *45:A 0.000135028
23 *18:31 *54:A1 9.25014e-06
24 *18:31 *60:A1 2.59355e-05
25 *18:31 *61:B1 5.33334e-05
26 *18:31 *65:C 3.32631e-05
27 *18:31 *66:A3 0
28 *45:B *18:10 2.48062e-05
29 *45:B *18:31 5.33433e-05
30 *48:B1 *48:A2 0.000279953
31 *48:B1 *18:31 0
32 *61:A1 *18:31 7.07155e-06
33 *66:B1 *18:31 8.32242e-05
34 *67:D *18:31 2.82447e-05
35 *69:D *48:A2 0.000105696
36 *16:6 *18:31 1.55885e-05
37 *17:24 *18:31 0
*RES
1 *47:Y *18:10 14.9071 
2 *18:10 *54:A2 10.9786 
3 *18:10 *18:31 15.9464 
4 *18:31 *48:A2 25.4071 
5 *18:31 *60:A2 9.3 
*END

*D_NET *19 0.0016418
*CONN
*I *49:B1 I *D sky130_fd_sc_hd__o21ai_1
*I *48:Y O *D sky130_fd_sc_hd__a21oi_1
*CAP
1 *49:B1 0.000209056
2 *48:Y 0.000209056
3 *49:B1 *45:A 0.000177941
4 *49:B1 *49:A1 4.41876e-05
5 *49:B1 *53:A 6.0038e-05
6 *49:B1 *61:A2 0.000379528
7 *49:B1 *61:B1 1.69115e-05
8 *49:B1 *72:A 8.32171e-05
9 *49:B1 *73:A 1.91414e-05
10 *49:B1 *37:34 0.000180377
11 *49:B1 *40:10 5.52238e-05
12 *48:B1 *49:B1 2.51343e-06
13 *60:B1 *49:B1 0.000179663
14 *61:A1 *49:B1 2.49484e-05
*RES
1 *48:Y *49:B1 36.1536 
*END

*D_NET *20 0.000402215
*CONN
*I *51:B I *D sky130_fd_sc_hd__or2_1
*I *52:B I *D sky130_fd_sc_hd__nand2_1
*I *50:X O *D sky130_fd_sc_hd__xor2_1
*CAP
1 *51:B 0
2 *52:B 1.38738e-05
3 *50:X 9.55824e-05
4 *20:8 0.000109456
5 *52:B *53:B 5.71472e-05
6 *20:8 *53:B 0.000122159
7 *20:8 *39:21 3.99614e-06
*RES
1 *50:X *20:8 11.9071 
2 *20:8 *52:B 9.83571 
3 *20:8 *51:B 9.3 
*END

*D_NET *21 0.00149009
*CONN
*I *53:A I *D sky130_fd_sc_hd__nand2_1
*I *59:A I *D sky130_fd_sc_hd__xnor2_1
*I *51:X O *D sky130_fd_sc_hd__or2_1
*CAP
1 *53:A 6.4575e-05
2 *59:A 0
3 *51:X 0.000200188
4 *21:10 0.000264763
5 *53:A *49:A1 8.08022e-05
6 *53:A *50:A 2.31791e-05
7 *53:A *61:A2 5.31541e-05
8 *53:A *40:12 0.000128868
9 *53:A *40:57 2.6949e-05
10 *21:10 *50:A 0.000152056
11 *21:10 *53:B 0.000358971
12 *21:10 *62:A1 1.1979e-05
13 *21:10 *62:A2 1.24532e-05
14 *21:10 *62:B1 3.05475e-05
15 *21:10 *40:57 4.1331e-06
16 *21:10 *41:6 0
17 *21:10 *41:27 1.74352e-05
18 *49:B1 *53:A 6.0038e-05
*RES
1 *51:X *21:10 19.675 
2 *21:10 *59:A 13.8 
3 *21:10 *53:A 16.6571 
*END

*D_NET *22 0.00202852
*CONN
*I *53:B I *D sky130_fd_sc_hd__nand2_1
*I *52:Y O *D sky130_fd_sc_hd__nand2_1
*CAP
1 *53:B 0.000294424
2 *52:Y 0.000294424
3 *53:B *49:A1 7.22594e-05
4 *53:B *50:A 0.000321006
5 *53:B *62:A1 0
6 *53:B *63:B 0.000178656
7 *53:B *39:21 0.000186662
8 *53:B *40:12 0.000121333
9 *53:B *41:12 0
10 *53:B *41:27 2.14757e-05
11 *52:B *53:B 5.71472e-05
12 *20:8 *53:B 0.000122159
13 *21:10 *53:B 0.000358971
*RES
1 *52:Y *53:B 38.1536 
*END

*D_NET *23 0.00189245
*CONN
*I *55:A3 I *D sky130_fd_sc_hd__a31o_1
*I *53:Y O *D sky130_fd_sc_hd__nand2_1
*CAP
1 *55:A3 0.000442279
2 *53:Y 0.000442279
3 *55:A3 *44:A 1.21289e-05
4 *55:A3 *54:A1 8.50971e-06
5 *55:A3 *55:B1 3.01732e-05
6 *55:A3 *62:A2 0
7 *55:A3 *62:A3 0
8 *55:A3 *63:A_N 0.000109377
9 *55:A3 *63:B 0.000110445
10 *55:A3 *72:A 6.85819e-05
11 *55:A3 *30:10 5.39629e-06
12 *55:A3 *37:15 4.45768e-06
13 *55:A3 *37:34 0.000251551
14 *55:A3 *40:10 6.05161e-06
15 *55:A3 *41:6 0
16 *46:A *55:A3 3.6705e-05
17 *68:D *55:A3 0
18 *71:A *55:A3 0.000142875
19 *15:6 *55:A3 8.36572e-05
20 *15:14 *55:A3 0.000137983
*RES
1 *53:Y *55:A3 47.4036 
*END

*D_NET *24 0.00073203
*CONN
*I *55:B1 I *D sky130_fd_sc_hd__a31o_1
*I *54:X O *D sky130_fd_sc_hd__a21o_1
*CAP
1 *55:B1 0.000191538
2 *54:X 0.000191538
3 *55:B1 *44:A 6.69488e-05
4 *55:B1 *54:A1 0
5 *55:B1 *64:A2 7.11313e-05
6 *55:B1 *65:B 0
7 *55:B1 *37:23 1.66941e-05
8 *55:B1 *37:34 5.65295e-05
9 *55:A3 *55:B1 3.01732e-05
10 *15:6 *55:B1 1.92905e-05
11 *15:14 *55:B1 7.80714e-06
12 *15:30 *55:B1 8.03794e-05
13 *17:16 *55:B1 0
*RES
1 *54:X *55:B1 32.0866 
*END

*D_NET *25 0.000405043
*CONN
*I *58:A I *D sky130_fd_sc_hd__nand2_1
*I *56:X O *D sky130_fd_sc_hd__a21o_1
*CAP
1 *58:A 0.000171065
2 *56:X 0.000171065
3 *58:A *56:A1 6.29133e-05
4 *58:A *58:B 0
5 *58:A *62:B1 0
*RES
1 *56:X *58:A 22.1357 
*END

*D_NET *26 0.000906272
*CONN
*I *62:B1 I *D sky130_fd_sc_hd__o31ai_1
*I *58:B I *D sky130_fd_sc_hd__nand2_1
*I *57:Y O *D sky130_fd_sc_hd__nand3_1
*CAP
1 *62:B1 0.000176415
2 *58:B 0.000110246
3 *57:Y 1.0704e-05
4 *26:6 0.000297365
5 *58:B *41:27 1.24368e-05
6 *62:B1 *56:A1 1.02702e-05
7 *62:B1 *59:B 4.88637e-05
8 *62:B1 *62:A2 5.92086e-05
9 *62:B1 *63:B 2.24195e-05
10 *62:B1 *40:57 9.90367e-05
11 *62:B1 *41:27 0
12 *26:6 *56:A1 1.33343e-05
13 *26:6 *40:57 1.5424e-05
14 *58:A *58:B 0
15 *58:A *62:B1 0
16 *21:10 *62:B1 3.05475e-05
*RES
1 *57:Y *26:6 9.83571 
2 *26:6 *58:B 11.4786 
3 *26:6 *62:B1 13.5679 
*END

*D_NET *27 0.000959467
*CONN
*I *59:B I *D sky130_fd_sc_hd__xnor2_1
*I *58:Y O *D sky130_fd_sc_hd__nand2_1
*CAP
1 *59:B 0.000158737
2 *58:Y 0.000158737
3 *59:B *56:A1 4.58976e-05
4 *59:B *63:B 0.000312209
5 *59:B *40:57 0.000139913
6 *59:B *41:27 6.16806e-05
7 *59:B *41:40 3.34295e-05
8 *62:B1 *59:B 4.88637e-05
*RES
1 *58:Y *59:B 32.5464 
*END

*D_NET *28 0.00120896
*CONN
*I *61:A2 I *D sky130_fd_sc_hd__o21ai_1
*I *59:Y O *D sky130_fd_sc_hd__xnor2_1
*CAP
1 *61:A2 0.000178922
2 *59:Y 0.000178922
3 *61:A2 *63:B 5.52238e-05
4 *61:A2 *73:A 0.000207693
5 *61:A2 *40:10 1.58163e-05
6 *61:A2 *40:57 8.15095e-05
7 *48:A2 *61:A2 1.91418e-05
8 *48:B1 *61:A2 3.90513e-05
9 *49:B1 *61:A2 0.000379528
10 *53:A *61:A2 5.31541e-05
*RES
1 *59:Y *61:A2 34.0286 
*END

*D_NET *29 0.000694244
*CONN
*I *61:B1 I *D sky130_fd_sc_hd__o21ai_1
*I *60:Y O *D sky130_fd_sc_hd__a21oi_1
*CAP
1 *61:B1 0.000103248
2 *60:Y 0.000103248
3 *61:B1 *66:A3 0
4 *61:B1 *73:A 3.34295e-05
5 *48:A2 *61:B1 0.00020042
6 *49:B1 *61:B1 1.69115e-05
7 *60:B1 *61:B1 8.46172e-05
8 *67:D *61:B1 9.90367e-05
9 *18:31 *61:B1 5.33334e-05
*RES
1 *60:Y *61:B1 31.7071 
*END

*D_NET *30 0.00249102
*CONN
*I *65:C I *D sky130_fd_sc_hd__nand4_1
*I *64:A2 I *D sky130_fd_sc_hd__a31o_1
*I *62:Y O *D sky130_fd_sc_hd__o31ai_1
*CAP
1 *65:C 8.54613e-05
2 *64:A2 0.000157534
3 *62:Y 0.000143614
4 *30:10 0.00038661
5 *64:A2 *47:A 0
6 *64:A2 *64:A1 4.77125e-05
7 *64:A2 *65:B 0.000224583
8 *64:A2 *37:34 0
9 *65:C *54:A1 9.07238e-05
10 *65:C *64:A3 1.08716e-05
11 *65:C *65:B 2.42516e-05
12 *65:C *66:A3 1.65337e-05
13 *65:C *31:10 5.31113e-05
14 *30:10 *49:A1 0
15 *30:10 *54:A1 0.000496717
16 *30:10 *62:A2 1.95646e-05
17 *30:10 *62:A3 1.33343e-05
18 *30:10 *63:B 8.25548e-05
19 *30:10 *31:10 0.00030241
20 *54:A2 *65:C 6.05161e-06
21 *55:A3 *30:10 5.39629e-06
22 *55:B1 *64:A2 7.11313e-05
23 *17:24 *64:A2 0.000137983
24 *18:10 *64:A2 8.16115e-05
25 *18:31 *65:C 3.32631e-05
*RES
1 *62:Y *30:10 20.5321 
2 *30:10 *64:A2 18.8848 
3 *30:10 *65:C 16.0857 
*END

*D_NET *31 0.00187694
*CONN
*I *64:A3 I *D sky130_fd_sc_hd__a31o_1
*I *65:D I *D sky130_fd_sc_hd__nand4_1
*I *63:Y O *D sky130_fd_sc_hd__nand2b_1
*CAP
1 *64:A3 0.00040832
2 *65:D 0
3 *63:Y 0.000114575
4 *31:10 0.000522894
5 *64:A3 *44:A 4.1331e-06
6 *64:A3 *64:A1 7.70134e-06
7 *64:A3 *66:A3 2.11419e-05
8 *64:A3 *37:15 7.43578e-06
9 *64:A3 *38:10 8.49861e-06
10 *31:10 *49:A1 0.000158438
11 *31:10 *66:A3 5.64118e-05
12 *31:10 *72:A 5.71472e-05
13 *31:10 *37:34 0
14 *65:C *64:A3 1.08716e-05
15 *65:C *31:10 5.31113e-05
16 *15:30 *64:A3 7.69776e-06
17 *17:16 *64:A3 0.0001235
18 *18:10 *64:A3 1.26529e-05
19 *30:10 *31:10 0.00030241
*RES
1 *63:Y *31:10 18.7107 
2 *31:10 *65:D 13.8 
3 *31:10 *64:A3 22.1428 
*END

*D_NET *32 0.000590801
*CONN
*I *66:A2 I *D sky130_fd_sc_hd__a31o_1
*I *64:X O *D sky130_fd_sc_hd__a31o_1
*CAP
1 *66:A2 0.000154048
2 *64:X 0.000154048
3 *66:A2 *70:CLK 0
4 *66:A2 *80:A 7.40249e-05
5 *66:A2 *38:10 4.46186e-06
6 *66:A1 *66:A2 6.70991e-05
7 *66:B1 *66:A2 0
8 *70:D *66:A2 2.78822e-05
9 *15:30 *66:A2 5.20904e-05
10 *18:10 *66:A2 5.71472e-05
*RES
1 *64:X *66:A2 32.2071 
*END

*D_NET *33 0.00165906
*CONN
*I *66:A3 I *D sky130_fd_sc_hd__a31o_1
*I *65:Y O *D sky130_fd_sc_hd__nand4_1
*CAP
1 *66:A3 0.000514926
2 *65:Y 0.000514926
3 *66:A3 *49:A1 0.000224599
4 *66:A3 *80:A 0
5 *45:B *66:A3 0
6 *61:A1 *66:A3 1.17968e-05
7 *61:B1 *66:A3 0
8 *64:A3 *66:A3 2.11419e-05
9 *65:C *66:A3 1.65337e-05
10 *66:A1 *66:A3 2.44318e-05
11 *66:B1 *66:A3 0.000274288
12 *16:6 *66:A3 0
13 *18:31 *66:A3 0
14 *31:10 *66:A3 5.64118e-05
*RES
1 *65:Y *66:A3 39.0643 
*END

*D_NET *34 0.00201535
*CONN
*I *73:A I *D sky130_fd_sc_hd__clkbuf_16
*I *72:A I *D sky130_fd_sc_hd__clkbuf_16
*I *71:X O *D sky130_fd_sc_hd__clkbuf_16
*CAP
1 *73:A 0.000118224
2 *72:A 0.000272802
3 *71:X 7.75781e-05
4 *34:6 0.000468604
5 *72:A *49:A1 5.79545e-05
6 *72:A *63:A_N 5.71472e-05
7 *72:A *63:B 0.000110445
8 *72:A *37:34 3.69047e-06
9 *72:A *40:10 8.25843e-06
10 *34:6 *67:CLK 1.58213e-06
11 *34:6 *40:6 0
12 *48:A2 *73:A 1.91414e-05
13 *48:B1 *72:A 3.906e-05
14 *48:B1 *73:A 0.000236605
15 *48:B1 *34:6 1.39726e-05
16 *49:B1 *72:A 8.32171e-05
17 *49:B1 *73:A 1.91414e-05
18 *55:A3 *72:A 6.85819e-05
19 *60:B1 *73:A 3.51442e-05
20 *61:A2 *73:A 0.000207693
21 *61:B1 *73:A 3.34295e-05
22 *69:D *73:A 2.59355e-05
23 *31:10 *72:A 5.71472e-05
*RES
1 *71:X *34:6 10.6571 
2 *34:6 *72:A 24.5321 
3 *34:6 *73:A 22.7107 
*END

*D_NET *35 0.00110523
*CONN
*I *70:CLK I *D sky130_fd_sc_hd__dfxtp_1
*I *68:CLK I *D sky130_fd_sc_hd__dfxtp_1
*I *72:X O *D sky130_fd_sc_hd__clkbuf_16
*CAP
1 *70:CLK 0.000279233
2 *68:CLK 9.15258e-05
3 *72:X 0
4 *35:6 0.000370759
5 *68:CLK *46:B 8.22043e-05
6 *70:CLK *44:A 0
7 *70:CLK *46:B 6.90183e-05
8 *70:CLK *38:10 0
9 *66:A2 *70:CLK 0
10 *70:D *70:CLK 0
11 *74:A *70:CLK 0.0001434
12 *75:A *70:CLK 5.99352e-05
13 *17:16 *70:CLK 9.15186e-06
*RES
1 *72:X *35:6 13.8 
2 *35:6 *68:CLK 16.3536 
3 *35:6 *70:CLK 20.9071 
*END

*D_NET *36 0.00166678
*CONN
*I *69:CLK I *D sky130_fd_sc_hd__dfxtp_1
*I *67:CLK I *D sky130_fd_sc_hd__dfxtp_1
*I *73:X O *D sky130_fd_sc_hd__clkbuf_16
*CAP
1 *69:CLK 4.32214e-05
2 *67:CLK 0.000129972
3 *73:X 0.000202791
4 *36:8 0.000375984
5 *67:CLK *40:6 2.27416e-05
6 *36:8 *60:A1 0.00020578
7 *48:A2 *67:CLK 0.000246376
8 *48:A2 *69:CLK 1.17968e-05
9 *67:D *67:CLK 0.000255056
10 *67:D *69:CLK 6.75007e-05
11 *69:D *67:CLK 9.25014e-06
12 *69:D *69:CLK 9.4724e-05
13 *34:6 *67:CLK 1.58213e-06
*RES
1 *73:X *36:8 18.8536 
2 *36:8 *67:CLK 19.925 
3 *36:8 *69:CLK 15.4429 
*END

*D_NET *37 0.00305302
*CONN
*I *64:A1 I *D sky130_fd_sc_hd__a31o_1
*I *45:A I *D sky130_fd_sc_hd__nand2_1
*I *65:A I *D sky130_fd_sc_hd__nand4_1
*I *55:A1 I *D sky130_fd_sc_hd__a31o_1
*I *47:A I *D sky130_fd_sc_hd__nor2_1
*I *74:X O *D sky130_fd_sc_hd__buf_1
*CAP
1 *64:A1 3.71784e-05
2 *45:A 0.000122947
3 *65:A 0
4 *55:A1 0
5 *47:A 3.82418e-05
6 *74:X 3.38996e-05
7 *37:34 0.000479773
8 *37:23 0.000431891
9 *37:15 0.00020453
10 *37:6 0.000164428
11 *45:A *49:A1 7.34455e-06
12 *37:6 *38:10 2.88157e-05
13 *37:15 *38:10 1.49842e-05
14 *37:23 *44:A 2.60353e-05
15 *37:34 *44:A 4.88637e-05
16 *37:34 *49:A1 9.33907e-05
17 *37:34 *63:A_N 0
18 *46:A *37:6 0
19 *46:A *37:15 0
20 *49:B1 *45:A 0.000177941
21 *49:B1 *37:34 0.000180377
22 *55:A3 *37:15 4.45768e-06
23 *55:A3 *37:34 0.000251551
24 *55:B1 *37:23 1.66941e-05
25 *55:B1 *37:34 5.65295e-05
26 *61:A1 *45:A 0.000153762
27 *64:A2 *47:A 0
28 *64:A2 *64:A1 4.77125e-05
29 *64:A2 *37:34 0
30 *64:A3 *64:A1 7.70134e-06
31 *64:A3 *37:15 7.43578e-06
32 *67:D *45:A 2.51343e-06
33 *72:A *37:34 3.69047e-06
34 *15:6 *64:A1 2.51343e-06
35 *15:14 *64:A1 2.15245e-05
36 *15:14 *37:15 1.07719e-05
37 *15:14 *37:23 5.4826e-05
38 *15:30 *37:23 4.11786e-05
39 *16:6 *45:A 4.58194e-05
40 *17:24 *37:34 2.49995e-05
41 *18:10 *64:A1 9.22103e-06
42 *18:10 *37:15 6.4443e-05
43 *18:31 *45:A 0.000135028
44 *31:10 *37:34 0
*RES
1 *74:X *37:6 10.1929 
2 *37:6 *47:A 10.0321 
3 *37:6 *37:15 2.23214 
4 *37:15 *37:23 11.0714 
5 *37:23 *55:A1 9.3 
6 *37:23 *37:34 13.0357 
7 *37:34 *65:A 13.8 
8 *37:34 *45:A 17.8357 
9 *37:15 *64:A1 10.675 
*END

*D_NET *38 0.00131123
*CONN
*I *47:B I *D sky130_fd_sc_hd__nor2_1
*I *44:A I *D sky130_fd_sc_hd__inv_2
*I *75:X O *D sky130_fd_sc_hd__buf_1
*CAP
1 *47:B 0
2 *44:A 0.000265
3 *75:X 0.000160872
4 *38:10 0.000425871
5 *44:A *46:B 0
6 *46:A *44:A 9.90431e-05
7 *55:A3 *44:A 1.21289e-05
8 *55:B1 *44:A 6.69488e-05
9 *64:A3 *44:A 4.1331e-06
10 *64:A3 *38:10 8.49861e-06
11 *66:A2 *38:10 4.46186e-06
12 *70:CLK *44:A 0
13 *70:CLK *38:10 0
14 *70:D *38:10 1.76859e-05
15 *74:A *38:10 2.89114e-05
16 *15:14 *44:A 4.37542e-05
17 *15:30 *44:A 0
18 *18:10 *38:10 5.52238e-05
19 *37:6 *38:10 2.88157e-05
20 *37:15 *38:10 1.49842e-05
21 *37:23 *44:A 2.60353e-05
22 *37:34 *44:A 4.88637e-05
*RES
1 *75:X *38:10 17.5321 
2 *38:10 *44:A 19.9786 
3 *38:10 *47:B 13.8 
*END

*D_NET *39 0.00254205
*CONN
*I *46:B I *D sky130_fd_sc_hd__nor2_1
*I *63:A_N I *D sky130_fd_sc_hd__nand2b_1
*I *62:A1 I *D sky130_fd_sc_hd__o31ai_1
*I *51:A I *D sky130_fd_sc_hd__or2_1
*I *52:A I *D sky130_fd_sc_hd__nand2_1
*I *76:X O *D sky130_fd_sc_hd__buf_1
*CAP
1 *46:B 0.000213538
2 *63:A_N 0.000218391
3 *62:A1 6.87608e-05
4 *51:A 4.62165e-05
5 *52:A 0
6 *76:X 7.19122e-05
7 *39:32 0.000339384
8 *39:21 0.000193788
9 *39:10 0.000242956
10 *39:6 0.000433067
11 *51:A *41:12 0
12 *62:A1 *41:6 5.62995e-05
13 *63:A_N *54:A1 0
14 *63:A_N *41:6 0
15 *63:A_N *41:12 0
16 *39:32 *41:12 0
17 *44:A *46:B 0
18 *53:B *62:A1 0
19 *53:B *39:21 0.000186662
20 *55:A3 *63:A_N 0.000109377
21 *68:CLK *46:B 8.22043e-05
22 *68:D *46:B 0.000136122
23 *68:D *63:A_N 0
24 *68:D *39:6 1.23419e-06
25 *68:D *39:10 0
26 *70:CLK *46:B 6.90183e-05
27 *72:A *63:A_N 5.71472e-05
28 *76:A *46:B 0
29 *20:8 *39:21 3.99614e-06
30 *21:10 *62:A1 1.1979e-05
31 *37:34 *63:A_N 0
*RES
1 *76:X *39:6 10.6571 
2 *39:6 *39:10 2.91071 
3 *39:10 *52:A 9.3 
4 *39:10 *39:21 7.41071 
5 *39:21 *51:A 14.5321 
6 *39:21 *39:32 1.64286 
7 *39:32 *62:A1 15.5679 
8 *39:32 *63:A_N 18.8357 
9 *39:6 *46:B 24.8 
*END

*D_NET *40 0.00634014
*CONN
*I *77:A I *D sky130_fd_sc_hd__buf_1
*I *48:A1 I *D sky130_fd_sc_hd__a21oi_1
*I *57:A I *D sky130_fd_sc_hd__nand3_1
*I *56:A1 I *D sky130_fd_sc_hd__a21o_1
*I *49:A1 I *D sky130_fd_sc_hd__o21ai_1
*I *62:A2 I *D sky130_fd_sc_hd__o31ai_1
*I *50:A I *D sky130_fd_sc_hd__xor2_1
*I *67:Q O *D sky130_fd_sc_hd__dfxtp_1
*CAP
1 *77:A 0.000143496
2 *48:A1 6.37539e-05
3 *57:A 0
4 *56:A1 0.000175113
5 *49:A1 0.000260948
6 *62:A2 0.000108076
7 *50:A 9.49881e-05
8 *67:Q 0
9 *40:57 0.00029494
10 *40:12 0.000233377
11 *40:10 0.000372324
12 *40:6 0.000531759
13 *40:4 0.00041061
14 *50:A *41:12 0
15 *50:A *41:27 0.000188586
16 *56:A1 *57:C 0.00010096
17 *56:A1 *63:B 1.02936e-05
18 *56:A1 *42:23 0.000111383
19 *56:A1 *42:25 0.000104622
20 *62:A2 *62:A3 3.3283e-05
21 *62:A2 *63:B 9.60875e-05
22 *62:A2 *41:6 1.66856e-05
23 *77:A *42:17 0.000255766
24 *40:6 *63:B 4.55215e-05
25 *40:6 *78:A 7.50473e-05
26 *40:6 *41:40 0.000176208
27 *40:10 *63:B 3.1521e-05
28 *45:A *49:A1 7.34455e-06
29 *48:B1 *48:A1 3.18676e-05
30 *48:B1 *40:10 2.13481e-06
31 *49:B1 *49:A1 4.41876e-05
32 *49:B1 *40:10 5.52238e-05
33 *53:A *49:A1 8.08022e-05
34 *53:A *50:A 2.31791e-05
35 *53:A *40:12 0.000128868
36 *53:A *40:57 2.6949e-05
37 *53:B *49:A1 7.22594e-05
38 *53:B *50:A 0.000321006
39 *53:B *40:12 0.000121333
40 *55:A3 *62:A2 0
41 *55:A3 *40:10 6.05161e-06
42 *58:A *56:A1 6.29133e-05
43 *59:B *56:A1 4.58976e-05
44 *59:B *40:57 0.000139913
45 *61:A1 *49:A1 0.000179656
46 *61:A2 *40:10 1.58163e-05
47 *61:A2 *40:57 8.15095e-05
48 *62:B1 *56:A1 1.02702e-05
49 *62:B1 *62:A2 5.92086e-05
50 *62:B1 *40:57 9.90367e-05
51 *66:A3 *49:A1 0.000224599
52 *67:CLK *40:6 2.27416e-05
53 *67:D *40:6 7.01199e-06
54 *72:A *49:A1 5.79545e-05
55 *72:A *40:10 8.25843e-06
56 *21:10 *50:A 0.000152056
57 *21:10 *62:A2 1.24532e-05
58 *21:10 *40:57 4.1331e-06
59 *26:6 *56:A1 1.33343e-05
60 *26:6 *40:57 1.5424e-05
61 *30:10 *49:A1 0
62 *30:10 *62:A2 1.95646e-05
63 *31:10 *49:A1 0.000158438
64 *34:6 *40:6 0
65 *37:34 *49:A1 9.33907e-05
*RES
1 *67:Q *40:4 9.3 
2 *40:4 *40:6 7.51786 
3 *40:6 *40:10 6.26786 
4 *40:10 *40:12 1.64286 
5 *40:12 *50:A 18.1214 
6 *40:12 *62:A2 16.7375 
7 *40:10 *49:A1 22.4786 
8 *40:6 *40:57 12.3036 
9 *40:57 *56:A1 14.5143 
10 *40:57 *57:A 9.3 
11 *40:6 *48:A1 10.8714 
12 *40:4 *77:A 21.9964 
*END

*D_NET *41 0.0049746
*CONN
*I *62:A3 I *D sky130_fd_sc_hd__o31ai_1
*I *54:A1 I *D sky130_fd_sc_hd__a21o_1
*I *78:A I *D sky130_fd_sc_hd__buf_1
*I *56:A2 I *D sky130_fd_sc_hd__a21o_1
*I *57:B I *D sky130_fd_sc_hd__nand3_1
*I *50:B I *D sky130_fd_sc_hd__xor2_1
*I *68:Q O *D sky130_fd_sc_hd__dfxtp_1
*CAP
1 *62:A3 4.00576e-05
2 *54:A1 0.000262556
3 *78:A 0.000270021
4 *56:A2 5.23239e-05
5 *57:B 0
6 *50:B 0
7 *68:Q 7.66788e-05
8 *41:40 0.000468454
9 *41:27 0.000661294
10 *41:12 0.000718538
11 *41:8 0.00046591
12 *41:6 0.000116736
13 *54:A1 *63:B 7.80714e-06
14 *56:A2 *63:B 0
15 *56:A2 *42:23 3.99614e-06
16 *78:A *42:23 6.62761e-05
17 *41:12 *63:B 2.8266e-06
18 *41:40 *63:B 0.000186669
19 *41:40 *42:23 3.97657e-05
20 *41:40 *42:25 5.23057e-05
21 *50:A *41:12 0
22 *50:A *41:27 0.000188586
23 *51:A *41:12 0
24 *53:B *41:12 0
25 *53:B *41:27 2.14757e-05
26 *55:A3 *54:A1 8.50971e-06
27 *55:A3 *62:A3 0
28 *55:A3 *41:6 0
29 *55:B1 *54:A1 0
30 *58:B *41:27 1.24368e-05
31 *59:B *41:27 6.16806e-05
32 *59:B *41:40 3.34295e-05
33 *62:A1 *41:6 5.62995e-05
34 *62:A2 *62:A3 3.3283e-05
35 *62:A2 *41:6 1.66856e-05
36 *62:B1 *41:27 0
37 *63:A_N *54:A1 0
38 *63:A_N *41:6 0
39 *63:A_N *41:12 0
40 *65:C *54:A1 9.07238e-05
41 *66:B1 *54:A1 2.22631e-05
42 *71:A *54:A1 7.6564e-05
43 *17:16 *54:A1 3.52391e-05
44 *17:58 *54:A1 3.72204e-05
45 *18:31 *54:A1 9.25014e-06
46 *21:10 *41:6 0
47 *21:10 *41:27 1.74352e-05
48 *30:10 *54:A1 0.000496717
49 *30:10 *62:A3 1.33343e-05
50 *39:32 *41:12 0
51 *40:6 *78:A 7.50473e-05
52 *40:6 *41:40 0.000176208
*RES
1 *68:Q *41:6 11.0679 
2 *41:6 *41:8 4.5 
3 *41:8 *41:12 7.66071 
4 *41:12 *50:B 9.3 
5 *41:12 *41:27 12.7679 
6 *41:27 *57:B 13.8 
7 *41:27 *41:40 9.76786 
8 *41:40 *56:A2 10.3357 
9 *41:40 *78:A 16.0143 
10 *41:8 *54:A1 21.5143 
11 *41:6 *62:A3 10.2643 
*END

*D_NET *42 0.00485788
*CONN
*I *79:A I *D sky130_fd_sc_hd__buf_1
*I *56:B1 I *D sky130_fd_sc_hd__a21o_1
*I *63:B I *D sky130_fd_sc_hd__nand2b_1
*I *57:C I *D sky130_fd_sc_hd__nand3_1
*I *60:A1 I *D sky130_fd_sc_hd__a21oi_1
*I *69:Q O *D sky130_fd_sc_hd__dfxtp_1
*CAP
1 *79:A 0
2 *56:B1 0
3 *63:B 0.000279794
4 *57:C 1.35522e-05
5 *60:A1 0.000311479
6 *69:Q 0
7 *42:25 0.000314322
8 *42:23 0.000167902
9 *42:17 0.000570028
10 *42:4 0.000734582
11 counter[0] *42:17 1.28585e-05
12 counter[1] *42:17 3.78069e-05
13 *53:B *63:B 0.000178656
14 *54:A1 *63:B 7.80714e-06
15 *55:A3 *63:B 0.000110445
16 *56:A1 *57:C 0.00010096
17 *56:A1 *63:B 1.02936e-05
18 *56:A1 *42:23 0.000111383
19 *56:A1 *42:25 0.000104622
20 *56:A2 *63:B 0
21 *56:A2 *42:23 3.99614e-06
22 *59:B *63:B 0.000312209
23 *61:A2 *63:B 5.52238e-05
24 *62:A2 *63:B 9.60875e-05
25 *62:B1 *63:B 2.24195e-05
26 *67:D *60:A1 2.13481e-06
27 *69:D *60:A1 0.000193956
28 *72:A *63:B 0.000110445
29 *77:A *42:17 0.000255766
30 *78:A *42:23 6.62761e-05
31 *18:31 *60:A1 2.59355e-05
32 *30:10 *63:B 8.25548e-05
33 *36:8 *60:A1 0.00020578
34 *40:6 *63:B 4.55215e-05
35 *40:10 *63:B 3.1521e-05
36 *41:12 *63:B 2.8266e-06
37 *41:40 *63:B 0.000186669
38 *41:40 *42:23 3.97657e-05
39 *41:40 *42:25 5.23057e-05
*RES
1 *69:Q *42:4 9.3 
2 *42:4 *60:A1 16.8179 
3 *42:4 *42:17 18.2321 
4 *42:17 *42:23 4.26786 
5 *42:23 *42:25 1.35714 
6 *42:25 *57:C 10.2464 
7 *42:25 *63:B 28.2375 
8 *42:23 *56:B1 9.3 
9 *42:17 *79:A 9.3 
*END

*D_NET *43 0.00261645
*CONN
*I *64:B1 I *D sky130_fd_sc_hd__a31o_1
*I *65:B I *D sky130_fd_sc_hd__nand4_1
*I *80:A I *D sky130_fd_sc_hd__buf_1
*I *70:Q O *D sky130_fd_sc_hd__dfxtp_1
*CAP
1 *64:B1 0
2 *65:B 0.000262593
3 *80:A 0.000367696
4 *70:Q 3.36806e-05
5 *43:25 0.000401487
6 *43:6 0.000540271
7 *45:B *80:A 1.58163e-05
8 *45:B *43:6 3.30352e-05
9 *54:A2 *65:B 9.60875e-05
10 *55:B1 *65:B 0
11 *60:B1 *65:B 0
12 *64:A2 *65:B 0.000224583
13 *65:C *65:B 2.42516e-05
14 *66:A1 *80:A 2.72859e-05
15 *66:A1 *43:25 8.15095e-05
16 *66:A2 *80:A 7.40249e-05
17 *66:A3 *80:A 0
18 *66:B1 *80:A 3.06878e-06
19 *66:B1 *43:6 1.05947e-05
20 *66:B1 *43:25 0
21 *70:D *80:A 8.49318e-05
22 *15:30 *65:B 2.22043e-05
23 *15:30 *43:25 0.000189299
24 *17:24 *65:B 7.05946e-05
25 *17:58 *65:B 9.87983e-06
26 *17:58 *43:25 0
27 *18:10 *65:B 4.35567e-05
28 *18:10 *80:A 0
*RES
1 *70:Q *43:6 10.2464 
2 *43:6 *80:A 25.8357 
3 *43:6 *43:25 7.96429 
4 *43:25 *65:B 19.7464 
5 *43:25 *64:B1 13.8 
*END
