*SPEF "ieee 1481-1999"
*DESIGN "counter_dut"
*DATE "11:27:56 Wednesday December 04, 2024"
*VENDOR "The OpenROAD Project"
*PROGRAM "OpenROAD"
*VERSION "edf00dff99f6c40d67a30c0e22a8191c5d2ed9d6"
*DESIGN_FLOW "NAME_SCOPE LOCAL" "PIN_CAP NONE"
*DIVIDER /
*DELIMITER :
*BUS_DELIMITER []
*T_UNIT 1 NS
*C_UNIT 1 PF
*R_UNIT 1 OHM
*L_UNIT 1 HENRY

*NAME_MAP
*3 clk
*4 counter[0]
*5 counter[1]
*6 counter[2]
*7 counter[3]
*8 enable
*9 reset
*10 up_down
*11 _00_
*12 _01_
*13 _02_
*14 _03_
*15 _04_
*16 _05_
*17 _06_
*18 _07_
*19 _08_
*20 _09_
*21 _10_
*22 _11_
*23 _12_
*24 _13_
*25 _14_
*26 _15_
*27 _16_
*28 _17_
*29 _18_
*30 _19_
*31 _20_
*32 _21_
*33 _22_
*34 clknet_0_clk
*35 clknet_1_0__leaf_clk
*36 clknet_1_1__leaf_clk
*37 net1
*38 net10
*39 net11
*40 net2
*41 net3
*42 net4
*43 net5
*44 net6
*45 net7
*46 net8
*47 net9
*48 FILLER_0_15
*49 FILLER_0_21
*50 FILLER_0_25
*51 FILLER_0_29
*52 FILLER_0_3
*53 FILLER_1_13
*54 FILLER_1_3
*55 FILLER_1_34
*56 FILLER_1_46
*57 FILLER_2_22
*58 FILLER_2_6
*59 FILLER_3_18
*60 FILLER_3_3
*61 FILLER_4_23
*62 FILLER_5_3
*63 FILLER_6_27
*64 FILLER_7_10
*65 FILLER_7_16
*66 FILLER_7_20
*67 PHY_EDGE_ROW_0_Left_8
*68 PHY_EDGE_ROW_0_Right_0
*69 PHY_EDGE_ROW_1_Left_9
*70 PHY_EDGE_ROW_1_Right_1
*71 PHY_EDGE_ROW_2_Left_10
*72 PHY_EDGE_ROW_2_Right_2
*73 PHY_EDGE_ROW_3_Left_11
*74 PHY_EDGE_ROW_3_Right_3
*75 PHY_EDGE_ROW_4_Left_12
*76 PHY_EDGE_ROW_4_Right_4
*77 PHY_EDGE_ROW_5_Left_13
*78 PHY_EDGE_ROW_5_Right_5
*79 PHY_EDGE_ROW_6_Left_14
*80 PHY_EDGE_ROW_6_Right_6
*81 PHY_EDGE_ROW_7_Left_15
*82 PHY_EDGE_ROW_7_Right_7
*83 TAP_TAPCELL_ROW_0_16
*84 TAP_TAPCELL_ROW_2_17
*85 TAP_TAPCELL_ROW_4_18
*86 TAP_TAPCELL_ROW_6_19
*87 TAP_TAPCELL_ROW_7_20
*88 _23_
*89 _24_
*90 _25_
*91 _26_
*92 _27_
*93 _28_
*94 _29_
*95 _30_
*96 _31_
*97 _32_
*98 _33_
*99 _34_
*100 _35_
*101 _36_
*102 _37_
*103 _38_
*104 _39_
*105 _40_
*106 _41_
*107 _42_
*108 _43_
*109 _44_
*110 _45_
*111 _46_
*112 _47_
*113 _48_
*114 _49_
*115 clkbuf_0_clk
*116 clkbuf_1_0__f_clk
*117 clkbuf_1_1__f_clk
*118 hold1
*119 hold2
*120 hold3
*121 hold4
*122 input1
*123 input2
*124 input3
*125 output4
*126 output5
*127 output6
*128 output7

*PORTS
clk I
counter[0] O
counter[1] O
counter[2] O
counter[3] O
enable I
reset I
up_down I

*D_NET *3 0.00297809
*CONN
*P clk I
*I *115:A I *D sky130_fd_sc_hd__clkbuf_16
*CAP
1 clk 0.00134872
2 *115:A 0
3 *3:11 0.00134872
4 *3:11 *116:A 0.000137254
5 *3:11 *8:17 3.12475e-05
6 *3:11 *9:11 0
7 *3:11 *10:17 2.79122e-05
8 *3:11 *18:12 6.9312e-05
9 *3:11 *25:12 0
10 *3:11 *42:14 1.01436e-05
11 *3:11 *42:29 4.79458e-06
*RES
1 clk *3:11 28.0722 
2 *3:11 *115:A 23 
*END

*D_NET *4 0.00198652
*CONN
*P counter[0] O
*I *125:X O *D sky130_fd_sc_hd__buf_2
*CAP
1 counter[0] 0.000711841
2 *125:X 8.52579e-05
3 *4:8 0.000797099
4 counter[0] counter[1] 6.91091e-05
5 counter[0] *113:CLK 0
6 counter[0] *5:10 0.000279804
7 counter[0] *6:10 0
8 counter[0] *44:10 4.3407e-05
*RES
1 *125:X *4:8 39.0979 
2 *4:8 counter[0] 20.2616 
*END

*D_NET *5 0.00156228
*CONN
*P counter[1] O
*I *126:X O *D sky130_fd_sc_hd__buf_2
*CAP
1 counter[1] 0.000148304
2 *126:X 0.00041951
3 *5:10 0.000567814
4 counter[1] counter[2] 7.77421e-05
5 *5:10 *43:14 0
6 counter[0] counter[1] 6.91091e-05
7 counter[0] *5:10 0.000279804
*RES
1 *126:X *5:10 45.9854 
2 *5:10 counter[1] 8.75787 
*END

*D_NET *6 0.0015286
*CONN
*P counter[2] O
*I *127:X O *D sky130_fd_sc_hd__buf_2
*CAP
1 counter[2] 0.000275263
2 *127:X 0.000316048
3 *6:10 0.00059131
4 *6:10 *42:60 0.000128525
5 *6:10 *44:10 0.000139713
6 *6:10 *46:8 0
7 counter[0] *6:10 0
8 counter[1] counter[2] 7.77421e-05
*RES
1 *127:X *6:10 43.6446 
2 *6:10 counter[2] 9.01547 
*END

*D_NET *7 0.0007914
*CONN
*P counter[3] O
*I *128:X O *D sky130_fd_sc_hd__buf_2
*CAP
1 counter[3] 8.65766e-05
2 *128:X 0.000283759
3 *7:14 0.000370336
4 counter[3] *9:11 1.5289e-05
5 *7:14 *128:A 1.94812e-05
6 *7:14 *9:11 1.59585e-05
*RES
1 *128:X *7:14 49.9 
2 *7:14 counter[3] 0.382667 
*END

*D_NET *8 0.000653964
*CONN
*P enable I
*I *122:A I *D sky130_fd_sc_hd__buf_1
*CAP
1 enable 0.000300736
2 *122:A 0
3 *8:17 0.000300736
4 *8:17 *99:A2 0
5 *8:17 *9:11 2.12457e-05
6 *3:11 *8:17 3.12475e-05
*RES
1 enable *8:17 27.1584 
2 *8:17 *122:A 23 
*END

*D_NET *9 0.00112207
*CONN
*P reset I
*I *123:A I *D sky130_fd_sc_hd__buf_1
*CAP
1 reset 0.000534786
2 *123:A 0
3 *9:11 0.000534786
4 *9:11 *128:A 0
5 counter[3] *9:11 1.5289e-05
6 *3:11 *9:11 0
7 *7:14 *9:11 1.59585e-05
8 *8:17 *9:11 2.12457e-05
*RES
1 reset *9:11 28.296 
2 *9:11 *123:A 23 
*END

*D_NET *10 0.000667074
*CONN
*P up_down I
*I *124:A I *D sky130_fd_sc_hd__buf_1
*CAP
1 up_down 0.000319581
2 *124:A 0
3 *10:17 0.000319581
4 *3:11 *10:17 2.79122e-05
*RES
1 up_down *10:17 27.1584 
2 *10:17 *124:A 23 
*END

*D_NET *11 0.00308677
*CONN
*I *111:D I *D sky130_fd_sc_hd__dfxtp_1
*I *93:Y O *D sky130_fd_sc_hd__o21ai_1
*CAP
1 *111:D 0.000354229
2 *93:Y 0.000546278
3 *11:8 0.000900506
4 *111:D *111:CLK 0.000522446
5 *111:D *113:CLK 0.000118174
6 *111:D *42:6 5.86609e-05
7 *11:8 *93:A2 7.53384e-06
8 *11:8 *98:A1 0.0002246
9 *11:8 *16:27 6.68822e-05
10 *11:8 *17:21 1.21972e-05
11 *11:8 *35:8 1.05235e-05
12 *11:8 *43:14 0.000264735
*RES
1 *93:Y *11:8 47.1971 
2 *11:8 *111:D 46.5809 
*END

*D_NET *12 0.000855539
*CONN
*I *112:D I *D sky130_fd_sc_hd__dfxtp_1
*I *99:X O *D sky130_fd_sc_hd__a31o_1
*CAP
1 *112:D 0.000247713
2 *99:X 6.55153e-05
3 *12:8 0.000313228
4 *112:D *114:CLK 0.000115
5 *12:8 *14:10 0.000114083
6 *12:8 *37:40 0
*RES
1 *99:X *12:8 39.5536 
2 *12:8 *112:D 41.7959 
*END

*D_NET *13 0.000900536
*CONN
*I *113:D I *D sky130_fd_sc_hd__dfxtp_1
*I *105:Y O *D sky130_fd_sc_hd__o21ai_1
*CAP
1 *113:D 0
2 *105:Y 0.000206567
3 *13:10 0.000206567
4 *13:10 *104:A1 0.000214832
5 *13:10 *104:A2 6.48257e-05
6 *13:10 *104:B1 2.32101e-05
7 *13:10 *113:CLK 0.000129529
8 *13:10 *44:41 5.50049e-05
*RES
1 *105:Y *13:10 27.9145 
2 *13:10 *113:D 23 
*END

*D_NET *14 0.00204312
*CONN
*I *121:A I *D sky130_fd_sc_hd__dlygate4sd3_1
*I *110:X O *D sky130_fd_sc_hd__a31o_1
*CAP
1 *121:A 0
2 *110:X 0.000535667
3 *14:10 0.000535667
4 *14:10 *109:D 0
5 *14:10 *16:10 0.000259337
6 *14:10 *19:10 9.41704e-05
7 *14:10 *23:12 1.12487e-05
8 *14:10 *37:40 0
9 *14:10 *40:21 0.000351617
10 *14:10 *45:32 0.00014133
11 *12:8 *14:10 0.000114083
*RES
1 *110:X *14:10 47.6321 
2 *14:10 *121:A 38 
*END

*D_NET *15 0.00464974
*CONN
*I *90:A I *D sky130_fd_sc_hd__nor2_1
*I *99:A2 I *D sky130_fd_sc_hd__a31o_1
*I *110:A1 I *D sky130_fd_sc_hd__a31o_1
*I *89:B I *D sky130_fd_sc_hd__nand2_1
*I *88:Y O *D sky130_fd_sc_hd__inv_2
*CAP
1 *90:A 0
2 *99:A2 0.0005852
3 *110:A1 9.2414e-05
4 *89:B 0
5 *88:Y 0.00027527
6 *15:20 9.2414e-05
7 *15:18 0.000767328
8 *15:14 0.000412799
9 *15:8 0.000505942
10 *99:A2 *109:A 0.000113283
11 *99:A2 *109:B 0.000143655
12 *99:A2 *109:C 0
13 *99:A2 *17:12 0
14 *99:A2 *33:10 0
15 *99:A2 *37:32 0.000102482
16 *99:A2 *45:12 2.83927e-05
17 *99:A2 *45:32 0.000132099
18 *110:A1 *89:A 5.90675e-06
19 *110:A1 *16:10 0.000187129
20 *110:A1 *37:6 3.71369e-05
21 *110:A1 *37:15 5.2894e-05
22 *15:8 *97:A 6.07611e-06
23 *15:8 *102:A 6.07611e-06
24 *15:8 *102:B 0
25 *15:8 *21:10 9.10209e-05
26 *15:8 *22:10 6.7177e-06
27 *15:8 *23:12 0
28 *15:8 *43:60 2.1199e-05
29 *15:8 *44:53 0.000109388
30 *15:14 *90:B 0.000121138
31 *15:14 *106:A3 0.000269775
32 *15:14 *107:A_N 0.00030819
33 *15:14 *17:6 1.57571e-05
34 *15:14 *17:21 5.40455e-05
35 *15:14 *42:96 3.32677e-05
36 *15:14 *44:53 6.22008e-05
37 *15:18 *17:12 0
38 *15:18 *41:29 1.05441e-05
39 *8:17 *99:A2 0
*RES
1 *88:Y *15:8 43.075 
2 *15:8 *15:14 22.1879 
3 *15:14 *15:18 17.61 
4 *15:18 *15:20 15 
5 *15:20 *89:B 23 
6 *15:20 *110:A1 26.0243 
7 *15:18 *99:A2 49.455 
8 *15:14 *90:A 23 
*END

*D_NET *16 0.0029485
*CONN
*I *105:A1 I *D sky130_fd_sc_hd__o21ai_1
*I *93:A2 I *D sky130_fd_sc_hd__o21ai_1
*I *89:Y O *D sky130_fd_sc_hd__nand2_1
*CAP
1 *105:A1 0
2 *93:A2 2.07689e-05
3 *89:Y 0.000407555
4 *16:27 0.000144403
5 *16:12 0.000165172
6 *16:10 0.000407555
7 *93:A2 *17:21 5.50049e-05
8 *16:10 *108:A1 8.06804e-06
9 *16:10 *108:A2 2.06822e-05
10 *16:10 *108:A3 2.64616e-05
11 *16:10 *110:A2 0.000103637
12 *16:10 *19:10 0.000234626
13 *16:10 *24:14 0.000192077
14 *16:10 *37:15 9.24795e-06
15 *16:10 *45:32 8.90336e-06
16 *16:10 *47:10 2.08106e-05
17 *16:27 *104:B1 0.000189678
18 *16:27 *17:21 0.000135037
19 *16:27 *23:12 0.000243047
20 *16:27 *28:10 1.14452e-05
21 *16:27 *40:21 2.34364e-05
22 *110:A1 *16:10 0.000187129
23 *11:8 *93:A2 7.53384e-06
24 *11:8 *16:27 6.68822e-05
25 *14:10 *16:10 0.000259337
*RES
1 *89:Y *16:10 48.1293 
2 *16:10 *16:12 15 
3 *16:12 *93:A2 23.6214 
4 *16:12 *16:27 34.8886 
5 *16:27 *105:A1 23 
*END

*D_NET *17 0.00366571
*CONN
*I *98:B1 I *D sky130_fd_sc_hd__a21o_1
*I *92:B1 I *D sky130_fd_sc_hd__a21oi_1
*I *104:B1 I *D sky130_fd_sc_hd__a21oi_1
*I *110:B1 I *D sky130_fd_sc_hd__a31o_1
*I *90:Y O *D sky130_fd_sc_hd__nor2_1
*CAP
1 *98:B1 0
2 *92:B1 0.000138661
3 *104:B1 0.000171725
4 *110:B1 0
5 *90:Y 0.000127117
6 *17:23 0.000310387
7 *17:21 0.000319273
8 *17:12 0.000143094
9 *17:6 0.000589484
10 *92:B1 *23:12 6.96962e-05
11 *92:B1 *40:21 0.000162813
12 *92:B1 *45:32 2.93747e-05
13 *104:B1 *104:A2 5.67058e-05
14 *104:B1 *105:B1 6.38926e-05
15 *104:B1 *40:21 0.000189612
16 *104:B1 *42:82 8.71432e-05
17 *104:B1 *44:41 0.000108981
18 *17:6 *90:B 2.24793e-05
19 *17:6 *107:A_N 7.88926e-05
20 *17:12 *109:C 0
21 *17:12 *30:10 0
22 *17:12 *47:10 0
23 *17:21 *98:A1 5.12055e-06
24 *17:21 *107:A_N 6.9805e-05
25 *17:21 *24:14 0.000136738
26 *17:21 *30:10 0.000187129
27 *17:21 *44:53 0.000112656
28 *93:A2 *17:21 5.50049e-05
29 *99:A2 *17:12 0
30 *11:8 *17:21 1.21972e-05
31 *13:10 *104:B1 2.32101e-05
32 *15:14 *17:6 1.57571e-05
33 *15:14 *17:21 5.40455e-05
34 *15:18 *17:12 0
35 *16:27 *104:B1 0.000189678
36 *16:27 *17:21 0.000135037
*RES
1 *90:Y *17:6 25.5271 
2 *17:6 *17:12 32.2579 
3 *17:12 *110:B1 23 
4 *17:6 *17:21 7.78857 
5 *17:21 *17:23 15 
6 *17:23 *104:B1 43.655 
7 *17:23 *92:B1 40.8793 
8 *17:21 *98:B1 23 
*END

*D_NET *18 0.00371299
*CONN
*I *92:A2 I *D sky130_fd_sc_hd__a21oi_1
*I *98:A2 I *D sky130_fd_sc_hd__a21o_1
*I *104:A2 I *D sky130_fd_sc_hd__a21oi_1
*I *91:Y O *D sky130_fd_sc_hd__nor2_1
*CAP
1 *92:A2 0
2 *98:A2 3.44864e-05
3 *104:A2 0.00028101
4 *91:Y 0.000332056
5 *18:12 0.000387302
6 *18:10 0.000268699
7 *18:8 0.000528949
8 *98:A2 *42:29 3.34818e-06
9 *104:A2 *105:B1 5.50106e-05
10 *104:A2 *40:21 0.000209958
11 *104:A2 *42:29 0
12 *104:A2 *42:31 6.12496e-06
13 *104:A2 *42:82 4.6595e-05
14 *18:8 *40:8 1.32314e-05
15 *18:8 *40:21 0.000215416
16 *18:10 *117:A 9.68319e-05
17 *18:10 *36:10 6.79006e-05
18 *18:10 *40:21 0.000584019
19 *18:10 *42:14 0.000171906
20 *18:12 *40:21 0.000182278
21 *18:12 *42:14 3.70187e-05
22 *104:B1 *104:A2 5.67058e-05
23 *3:11 *18:12 6.9312e-05
24 *13:10 *104:A2 6.48257e-05
*RES
1 *91:Y *18:8 42.9093 
2 *18:8 *18:10 7.89214 
3 *18:10 *18:12 2.61 
4 *18:12 *104:A2 44.2764 
5 *18:12 *98:A2 38.7975 
6 *18:10 *92:A2 38 
*END

*D_NET *19 0.00103939
*CONN
*I *93:B1 I *D sky130_fd_sc_hd__o21ai_1
*I *92:Y O *D sky130_fd_sc_hd__a21oi_1
*CAP
1 *93:B1 0
2 *92:Y 0.00017692
3 *19:10 0.00017692
4 *19:10 *23:12 0.000260876
5 *19:10 *44:53 0
6 *19:10 *45:32 9.5877e-05
7 *14:10 *19:10 9.41704e-05
8 *16:10 *19:10 0.000234626
*RES
1 *92:Y *19:10 42.7643 
2 *19:10 *93:B1 38 
*END

*D_NET *20 0.00062776
*CONN
*I *95:B I *D sky130_fd_sc_hd__or2_1
*I *96:B I *D sky130_fd_sc_hd__nand2_1
*I *94:X O *D sky130_fd_sc_hd__xor2_1
*CAP
1 *95:B 2.32701e-05
2 *96:B 0
3 *94:X 0.000141727
4 *20:10 2.32701e-05
5 *20:8 0.000141727
6 *95:B *95:A 5.3304e-05
7 *95:B *42:96 5.3304e-05
8 *20:8 *102:A 0
9 *20:8 *102:B 0.000191157
10 *20:8 *41:12 0
*RES
1 *94:X *20:8 40.9621 
2 *20:8 *20:10 15 
3 *20:10 *96:B 23 
4 *20:10 *95:B 23.6214 
*END

*D_NET *21 0.00209637
*CONN
*I *103:A I *D sky130_fd_sc_hd__xnor2_1
*I *97:A I *D sky130_fd_sc_hd__nand2_1
*I *95:X O *D sky130_fd_sc_hd__or2_1
*CAP
1 *103:A 4.63141e-05
2 *97:A 0.000268399
3 *95:X 0.00020754
4 *21:10 0.000522254
5 *97:A *102:A 0
6 *97:A *22:10 0.000212377
7 *103:A *88:A 9.41704e-05
8 *103:A *94:A 1.21972e-05
9 *103:A *103:B 5.3304e-05
10 *21:10 *22:10 0.00038835
11 *21:10 *42:82 0.000139352
12 *21:10 *42:96 5.50106e-05
13 *15:8 *97:A 6.07611e-06
14 *15:8 *21:10 9.10209e-05
*RES
1 *95:X *21:10 43.0129 
2 *21:10 *97:A 43.0336 
3 *21:10 *103:A 39.0979 
*END

*D_NET *22 0.00239795
*CONN
*I *97:B I *D sky130_fd_sc_hd__nand2_1
*I *96:Y O *D sky130_fd_sc_hd__nand2_1
*CAP
1 *97:B 0
2 *96:Y 0.000458419
3 *22:10 0.000458419
4 *22:10 *23:12 0.000387059
5 *22:10 *26:8 0.000264564
6 *22:10 *42:82 2.02872e-05
7 *22:10 *42:96 0.00020176
8 *97:A *22:10 0.000212377
9 *15:8 *22:10 6.7177e-06
10 *21:10 *22:10 0.00038835
*RES
1 *96:Y *22:10 49.8693 
2 *22:10 *97:B 38 
*END

*D_NET *23 0.00264375
*CONN
*I *99:A3 I *D sky130_fd_sc_hd__a31o_1
*I *97:Y O *D sky130_fd_sc_hd__nand2_1
*CAP
1 *99:A3 0
2 *97:Y 0
3 *23:12 0.00063639
4 *23:6 0.00063639
5 *23:12 *24:14 3.76826e-05
6 *23:12 *28:10 5.51294e-05
7 *23:12 *40:21 1.52259e-05
8 *23:12 *43:45 8.47399e-05
9 *23:12 *44:53 0
10 *23:12 *45:32 0.000206262
11 *92:B1 *23:12 6.96962e-05
12 *14:10 *23:12 1.12487e-05
13 *15:8 *23:12 0
14 *16:27 *23:12 0.000243047
15 *19:10 *23:12 0.000260876
16 *22:10 *23:12 0.000387059
*RES
1 *97:Y *23:6 38 
2 *23:6 *23:12 28.7957 
3 *23:12 *99:A3 23 
*END

*D_NET *24 0.00142848
*CONN
*I *99:B1 I *D sky130_fd_sc_hd__a31o_1
*I *98:X O *D sky130_fd_sc_hd__a21o_1
*CAP
1 *99:B1 0
2 *98:X 0.000368282
3 *24:14 0.000368282
4 *24:14 *37:21 3.57337e-05
5 *24:14 *47:10 0.000289685
6 *16:10 *24:14 0.000192077
7 *17:21 *24:14 0.000136738
8 *23:12 *24:14 3.76826e-05
*RES
1 *98:X *24:14 45.0636 
2 *24:14 *99:B1 38 
*END

*D_NET *25 0.00100781
*CONN
*I *102:A I *D sky130_fd_sc_hd__nand2_1
*I *100:X O *D sky130_fd_sc_hd__a21o_1
*CAP
1 *102:A 4.24855e-05
2 *100:X 0.000455589
3 *25:12 0.000498075
4 *25:12 *42:35 5.58152e-06
5 *97:A *102:A 0
6 *3:11 *25:12 0
7 *15:8 *102:A 6.07611e-06
8 *20:8 *102:A 0
*RES
1 *100:X *25:12 47.3216 
2 *25:12 *102:A 46.6732 
*END

*D_NET *26 0.00189547
*CONN
*I *106:B1 I *D sky130_fd_sc_hd__o31ai_1
*I *102:B I *D sky130_fd_sc_hd__nand2_1
*I *101:Y O *D sky130_fd_sc_hd__nand3_1
*CAP
1 *106:B1 0.000153452
2 *102:B 0.000236339
3 *101:Y 0.000206069
4 *26:8 0.000595861
5 *102:B *94:A 5.70419e-05
6 *102:B *94:B 9.84851e-05
7 *102:B *106:A3 1.67942e-05
8 *102:B *41:12 0
9 *102:B *42:96 1.88594e-05
10 *102:B *43:60 3.56537e-05
11 *106:B1 *41:29 0
12 *106:B1 *42:96 2.11887e-05
13 *106:B1 *44:53 0
14 *15:8 *102:B 0
15 *20:8 *102:B 0.000191157
16 *22:10 *26:8 0.000264564
*RES
1 *101:Y *26:8 41.0036 
2 *26:8 *102:B 43.5307 
3 *26:8 *106:B1 40.2579 
*END

*D_NET *27 0.000526084
*CONN
*I *103:B I *D sky130_fd_sc_hd__xnor2_1
*I *102:Y O *D sky130_fd_sc_hd__nand2_1
*CAP
1 *103:B 7.87549e-05
2 *102:Y 7.87549e-05
3 *103:B *88:A 7.27085e-05
4 *103:B *94:A 0.000210537
5 *103:B *94:B 7.53384e-06
6 *103:B *43:45 2.44913e-05
7 *103:A *103:B 5.3304e-05
*RES
1 *102:Y *103:B 49.0036 
*END

*D_NET *28 0.000572618
*CONN
*I *105:A2 I *D sky130_fd_sc_hd__o21ai_1
*I *103:Y O *D sky130_fd_sc_hd__xnor2_1
*CAP
1 *105:A2 0
2 *103:Y 0.000142256
3 *28:10 0.000142256
4 *28:10 *88:A 5.50049e-05
5 *28:10 *40:21 0.000138727
6 *28:10 *43:45 2.77993e-05
7 *16:27 *28:10 1.14452e-05
8 *23:12 *28:10 5.51294e-05
*RES
1 *103:Y *28:10 41.0036 
2 *28:10 *105:A2 38 
*END

*D_NET *29 0.000309257
*CONN
*I *105:B1 I *D sky130_fd_sc_hd__o21ai_1
*I *104:Y O *D sky130_fd_sc_hd__a21oi_1
*CAP
1 *105:B1 4.72382e-05
2 *104:Y 4.72382e-05
3 *105:B1 *42:82 9.5877e-05
4 *104:A2 *105:B1 5.50106e-05
5 *104:B1 *105:B1 6.38926e-05
*RES
1 *104:Y *105:B1 47.595 
*END

*D_NET *30 0.00179628
*CONN
*I *109:C I *D sky130_fd_sc_hd__nand4_1
*I *108:A2 I *D sky130_fd_sc_hd__a31o_1
*I *106:Y O *D sky130_fd_sc_hd__o31ai_1
*CAP
1 *109:C 0.000176426
2 *108:A2 8.36886e-05
3 *106:Y 0.000197882
4 *30:10 0.000457996
5 *108:A2 *108:A1 9.24426e-05
6 *108:A2 *108:A3 5.3304e-05
7 *108:A2 *110:A2 1.64402e-05
8 *108:A2 *37:15 9.41704e-05
9 *109:C *109:D 0.000230291
10 *109:C *31:8 3.47781e-05
11 *109:C *33:10 4.23714e-05
12 *30:10 *31:8 0.000108681
13 *99:A2 *109:C 0
14 *16:10 *108:A2 2.06822e-05
15 *17:12 *109:C 0
16 *17:12 *30:10 0
17 *17:21 *30:10 0.000187129
*RES
1 *106:Y *30:10 41.6043 
2 *30:10 *108:A2 40.0714 
3 *30:10 *109:C 41.6664 
*END

*D_NET *31 0.0011873
*CONN
*I *109:D I *D sky130_fd_sc_hd__nand4_1
*I *108:A3 I *D sky130_fd_sc_hd__a31o_1
*I *107:Y O *D sky130_fd_sc_hd__nand2b_1
*CAP
1 *109:D 0.000105255
2 *108:A3 2.77218e-05
3 *107:Y 7.72088e-05
4 *31:8 0.000210186
5 *109:D *37:21 0.00021356
6 *109:D *37:40 4.21594e-06
7 *31:8 *37:21 5.94125e-05
8 *31:8 *47:10 3.62219e-05
9 *108:A2 *108:A3 5.3304e-05
10 *109:C *109:D 0.000230291
11 *109:C *31:8 3.47781e-05
12 *14:10 *109:D 0
13 *16:10 *108:A3 2.64616e-05
14 *30:10 *31:8 0.000108681
*RES
1 *107:Y *31:8 39.9057 
2 *31:8 *108:A3 38.6214 
3 *31:8 *109:D 41.3143 
*END

*D_NET *32 0.000347159
*CONN
*I *110:A2 I *D sky130_fd_sc_hd__a31o_1
*I *108:X O *D sky130_fd_sc_hd__a31o_1
*CAP
1 *110:A2 6.48099e-05
2 *108:X 6.48099e-05
3 *110:A2 *37:15 9.74625e-05
4 *110:A2 *45:32 0
5 *108:A2 *110:A2 1.64402e-05
6 *16:10 *110:A2 0.000103637
*RES
1 *108:X *110:A2 48.5479 
*END

*D_NET *33 0.000376869
*CONN
*I *110:A3 I *D sky130_fd_sc_hd__a31o_1
*I *109:Y O *D sky130_fd_sc_hd__nand4_1
*CAP
1 *110:A3 0
2 *109:Y 0.000139744
3 *33:10 0.000139744
4 *33:10 *45:32 5.50106e-05
5 *99:A2 *33:10 0
6 *109:C *33:10 4.23714e-05
*RES
1 *109:Y *33:10 40.5271 
2 *33:10 *110:A3 38 
*END

*D_NET *34 0.00280629
*CONN
*I *117:A I *D sky130_fd_sc_hd__clkbuf_16
*I *116:A I *D sky130_fd_sc_hd__clkbuf_16
*I *115:X O *D sky130_fd_sc_hd__clkbuf_16
*CAP
1 *117:A 0.000406406
2 *116:A 0.000147037
3 *115:X 0.000535246
4 *34:8 0.00108869
5 *116:A *98:A1 3.22879e-05
6 *116:A *42:14 5.80038e-05
7 *116:A *42:29 0.000110379
8 *116:A *43:14 0
9 *117:A *36:10 0.000155557
10 *117:A *40:21 0
11 *117:A *42:14 3.47776e-05
12 *117:A *43:14 0
13 *34:8 *42:29 3.82058e-06
14 *3:11 *116:A 0.000137254
15 *18:10 *117:A 9.68319e-05
*RES
1 *115:X *34:8 44.3386 
2 *34:8 *116:A 41.9357 
3 *34:8 *117:A 46.5136 
*END

*D_NET *35 0.00294614
*CONN
*I *111:CLK I *D sky130_fd_sc_hd__dfxtp_1
*I *113:CLK I *D sky130_fd_sc_hd__dfxtp_1
*I *116:X O *D sky130_fd_sc_hd__clkbuf_16
*CAP
1 *111:CLK 0.000322659
2 *113:CLK 0.000306317
3 *116:X 0.000169353
4 *35:8 0.000798329
5 *111:CLK *42:6 2.8778e-05
6 *111:CLK *43:14 0.000392593
7 *113:CLK *104:A1 5.48293e-05
8 *113:CLK *43:14 9.26098e-05
9 counter[0] *113:CLK 0
10 *111:D *111:CLK 0.000522446
11 *111:D *113:CLK 0.000118174
12 *11:8 *35:8 1.05235e-05
13 *13:10 *113:CLK 0.000129529
*RES
1 *116:X *35:8 40.0507 
2 *35:8 *113:CLK 45.0221 
3 *35:8 *111:CLK 46.9279 
*END

*D_NET *36 0.00220554
*CONN
*I *112:CLK I *D sky130_fd_sc_hd__dfxtp_1
*I *114:CLK I *D sky130_fd_sc_hd__dfxtp_1
*I *117:X O *D sky130_fd_sc_hd__clkbuf_16
*CAP
1 *112:CLK 0
2 *114:CLK 0.000300276
3 *117:X 0.000617119
4 *36:12 0.000300276
5 *36:10 0.000617119
6 *114:CLK *114:D 3.22879e-05
7 *112:D *114:CLK 0.000115
8 *117:A *36:10 0.000155557
9 *18:10 *36:10 6.79006e-05
*RES
1 *117:X *36:10 46.7207 
2 *36:10 *36:12 15 
3 *36:12 *114:CLK 28.3857 
4 *36:12 *112:CLK 23 
*END

*D_NET *37 0.00390097
*CONN
*I *108:A1 I *D sky130_fd_sc_hd__a31o_1
*I *99:A1 I *D sky130_fd_sc_hd__a31o_1
*I *91:A I *D sky130_fd_sc_hd__nor2_1
*I *109:A I *D sky130_fd_sc_hd__nand4_1
*I *89:A I *D sky130_fd_sc_hd__nand2_1
*I *122:X O *D sky130_fd_sc_hd__buf_1
*CAP
1 *108:A1 0.000115369
2 *99:A1 0
3 *91:A 0
4 *109:A 7.1009e-05
5 *89:A 3.80527e-05
6 *122:X 0.000116242
7 *37:40 0.000373811
8 *37:32 0.000423138
9 *37:21 0.000249877
10 *37:15 0.000570848
11 *37:6 0.000480233
12 *109:A *45:32 0.000223687
13 *37:21 *47:10 0.00021263
14 *37:32 *45:32 4.5051e-05
15 *37:40 *40:21 5.50049e-05
16 *99:A2 *109:A 0.000113283
17 *99:A2 *37:32 0.000102482
18 *108:A2 *108:A1 9.24426e-05
19 *108:A2 *37:15 9.41704e-05
20 *109:D *37:21 0.00021356
21 *109:D *37:40 4.21594e-06
22 *110:A1 *89:A 5.90675e-06
23 *110:A1 *37:6 3.71369e-05
24 *110:A1 *37:15 5.2894e-05
25 *110:A2 *37:15 9.74625e-05
26 *12:8 *37:40 0
27 *14:10 *37:40 0
28 *16:10 *108:A1 8.06804e-06
29 *16:10 *37:15 9.24795e-06
30 *24:14 *37:21 3.57337e-05
31 *31:8 *37:21 5.94125e-05
*RES
1 *122:X *37:6 24.5743 
2 *37:6 *89:A 23.8493 
3 *37:6 *37:15 4.90929 
4 *37:15 *37:21 33.6664 
5 *37:21 *109:A 25.5271 
6 *37:21 *37:32 1.595 
7 *37:32 *37:40 36.4007 
8 *37:40 *91:A 23 
9 *37:32 *99:A1 23 
10 *37:15 *108:A1 24.9471 
*END

*D_NET *38 0.000321488
*CONN
*I *109:B I *D sky130_fd_sc_hd__nand4_1
*I *120:X O *D sky130_fd_sc_hd__dlygate4sd3_1
*CAP
1 *109:B 8.89166e-05
2 *120:X 8.89166e-05
3 *99:A2 *109:B 0.000143655
*RES
1 *120:X *109:B 47.5743 
*END

*D_NET *39 0.000232069
*CONN
*I *114:D I *D sky130_fd_sc_hd__dfxtp_1
*I *121:X O *D sky130_fd_sc_hd__dlygate4sd3_1
*CAP
1 *114:D 9.98907e-05
2 *121:X 9.98907e-05
3 *114:CLK *114:D 3.22879e-05
*RES
1 *121:X *114:D 47.8902 
*END

*D_NET *40 0.00505016
*CONN
*I *88:A I *D sky130_fd_sc_hd__inv_2
*I *91:B I *D sky130_fd_sc_hd__nor2_1
*I *123:X O *D sky130_fd_sc_hd__buf_1
*CAP
1 *88:A 0.000144673
2 *91:B 2.34823e-05
3 *123:X 0.00024656
4 *40:21 0.000853205
5 *40:8 0.000978575
6 *88:A *94:A 7.44161e-06
7 *88:A *94:B 5.90675e-06
8 *88:A *43:45 0.000316089
9 *40:21 *42:31 0
10 *40:21 *43:45 1.12487e-05
11 *40:21 *44:41 6.4393e-05
12 *40:21 *45:32 3.53621e-05
13 *92:B1 *40:21 0.000162813
14 *103:A *88:A 9.41704e-05
15 *103:B *88:A 7.27085e-05
16 *104:A2 *40:21 0.000209958
17 *104:B1 *40:21 0.000189612
18 *117:A *40:21 0
19 *14:10 *40:21 0.000351617
20 *16:27 *40:21 2.34364e-05
21 *18:8 *40:8 1.32314e-05
22 *18:8 *40:21 0.000215416
23 *18:10 *40:21 0.000584019
24 *18:12 *40:21 0.000182278
25 *23:12 *40:21 1.52259e-05
26 *28:10 *88:A 5.50049e-05
27 *28:10 *40:21 0.000138727
28 *37:40 *40:21 5.50049e-05
*RES
1 *123:X *40:8 27.4536 
2 *40:8 *91:B 23.4971 
3 *40:8 *40:21 35.7764 
4 *40:21 *88:A 42.4536 
*END

*D_NET *41 0.00252846
*CONN
*I *95:A I *D sky130_fd_sc_hd__or2_1
*I *96:A I *D sky130_fd_sc_hd__nand2_1
*I *106:A1 I *D sky130_fd_sc_hd__o31ai_1
*I *107:A_N I *D sky130_fd_sc_hd__nand2b_1
*I *90:B I *D sky130_fd_sc_hd__nor2_1
*I *124:X O *D sky130_fd_sc_hd__buf_1
*CAP
1 *95:A 0.000124831
2 *96:A 2.00578e-05
3 *106:A1 0
4 *107:A_N 9.32214e-05
5 *90:B 0.000141814
6 *124:X 9.21007e-05
7 *41:47 0.000226285
8 *41:29 0.000218784
9 *41:12 0.000406636
10 *41:8 0.000312756
11 *95:A *42:96 0.000120337
12 *96:A *42:96 0
13 *41:12 *42:96 7.03663e-05
14 *41:29 *42:96 4.6318e-06
15 *41:47 *42:96 3.22879e-05
16 *95:B *95:A 5.3304e-05
17 *102:B *41:12 0
18 *106:B1 *41:29 0
19 *15:14 *90:B 0.000121138
20 *15:14 *107:A_N 0.00030819
21 *15:18 *41:29 1.05441e-05
22 *17:6 *90:B 2.24793e-05
23 *17:6 *107:A_N 7.88926e-05
24 *17:21 *107:A_N 6.9805e-05
25 *20:8 *41:12 0
*RES
1 *124:X *41:8 24.595 
2 *41:8 *41:12 17.61 
3 *41:12 *90:B 40.9207 
4 *41:12 *41:29 16.2014 
5 *41:29 *107:A_N 26.9979 
6 *41:29 *106:A1 23 
7 *41:8 *41:47 1.57429 
8 *41:47 *96:A 23.4971 
9 *41:47 *95:A 25.5271 
*END

*D_NET *42 0.0103683
*CONN
*I *119:A I *D sky130_fd_sc_hd__dlygate4sd3_1
*I *101:A I *D sky130_fd_sc_hd__nand3_1
*I *106:A2 I *D sky130_fd_sc_hd__o31ai_1
*I *100:A1 I *D sky130_fd_sc_hd__a21o_1
*I *125:A I *D sky130_fd_sc_hd__buf_2
*I *94:A I *D sky130_fd_sc_hd__xor2_1
*I *92:A1 I *D sky130_fd_sc_hd__a21oi_1
*I *111:Q O *D sky130_fd_sc_hd__dfxtp_1
*CAP
1 *119:A 3.93866e-05
2 *101:A 0
3 *106:A2 0
4 *100:A1 4.33954e-05
5 *125:A 0
6 *94:A 0.000698491
7 *92:A1 8.62149e-05
8 *111:Q 0.000616702
9 *42:96 0.000269314
10 *42:82 0.000696903
11 *42:60 0.000474818
12 *42:35 0.0012879
13 *42:31 0.000318827
14 *42:29 0.000952153
15 *42:14 0.000700795
16 *42:6 0.000906945
17 *94:A *94:B 0.000122044
18 *94:A *43:45 0.000173278
19 *100:A1 *44:31 5.56356e-05
20 *42:29 *43:14 0
21 *42:29 *43:33 0.000136486
22 *42:31 *43:33 0.0001269
23 *42:31 *44:41 2.79064e-05
24 *42:35 *43:33 2.96051e-05
25 *42:35 *43:45 0
26 *42:35 *44:22 0
27 *42:35 *44:41 1.19796e-05
28 *42:60 *43:45 0.000100069
29 *42:60 *44:16 7.58527e-05
30 *42:60 *44:22 5.31156e-05
31 *42:60 *44:31 0.00012463
32 *42:82 *101:B 4.17736e-05
33 *42:82 *44:41 0.000113088
34 *42:82 *44:53 3.88766e-05
35 *42:96 *101:B 9.5877e-05
36 *88:A *94:A 7.44161e-06
37 *95:A *42:96 0.000120337
38 *95:B *42:96 5.3304e-05
39 *96:A *42:96 0
40 *98:A2 *42:29 3.34818e-06
41 *102:B *94:A 5.70419e-05
42 *102:B *42:96 1.88594e-05
43 *103:A *94:A 1.21972e-05
44 *103:B *94:A 0.000210537
45 *104:A2 *42:29 0
46 *104:A2 *42:31 6.12496e-06
47 *104:A2 *42:82 4.6595e-05
48 *104:B1 *42:82 8.71432e-05
49 *105:B1 *42:82 9.5877e-05
50 *106:B1 *42:96 2.11887e-05
51 *111:CLK *42:6 2.8778e-05
52 *111:D *42:6 5.86609e-05
53 *116:A *42:14 5.80038e-05
54 *116:A *42:29 0.000110379
55 *117:A *42:14 3.47776e-05
56 *3:11 *42:14 1.01436e-05
57 *3:11 *42:29 4.79458e-06
58 *6:10 *42:60 0.000128525
59 *15:14 *42:96 3.32677e-05
60 *18:10 *42:14 0.000171906
61 *18:12 *42:14 3.70187e-05
62 *21:10 *42:82 0.000139352
63 *21:10 *42:96 5.50106e-05
64 *22:10 *42:82 2.02872e-05
65 *22:10 *42:96 0.00020176
66 *25:12 *42:35 5.58152e-06
67 *34:8 *42:29 3.82058e-06
68 *40:21 *42:31 0
69 *41:12 *42:96 7.03663e-05
70 *41:29 *42:96 4.6318e-06
71 *41:47 *42:96 3.22879e-05
*RES
1 *111:Q *42:6 30.7679 
2 *42:6 *42:14 34.6607 
3 *42:14 *92:A1 24.0979 
4 *42:14 *42:29 21.09 
5 *42:29 *42:31 2.96214 
6 *42:31 *42:35 16.5536 
7 *42:35 *94:A 36.0914 
8 *42:35 *42:60 39.57 
9 *42:60 *125:A 23 
10 *42:31 *100:A1 38.6214 
11 *42:29 *42:82 22.685 
12 *42:82 *42:96 37.3639 
13 *42:96 *106:A2 23 
14 *42:82 *101:A 23 
15 *42:6 *119:A 23.8493 
*END

*D_NET *43 0.00793048
*CONN
*I *126:A I *D sky130_fd_sc_hd__buf_2
*I *100:A2 I *D sky130_fd_sc_hd__a21o_1
*I *106:A3 I *D sky130_fd_sc_hd__o31ai_1
*I *101:B I *D sky130_fd_sc_hd__nand3_1
*I *94:B I *D sky130_fd_sc_hd__xor2_1
*I *98:A1 I *D sky130_fd_sc_hd__a21o_1
*I *112:Q O *D sky130_fd_sc_hd__dfxtp_1
*CAP
1 *126:A 7.27827e-05
2 *100:A2 0
3 *106:A3 0.000320499
4 *101:B 5.76197e-05
5 *94:B 0.000209803
6 *98:A1 0.000124526
7 *112:Q 0
8 *43:60 0.000452696
9 *43:45 0.00074791
10 *43:33 0.000794613
11 *43:14 0.00116244
12 *43:4 0.000779608
13 *101:B *44:53 9.67842e-05
14 *106:A3 *44:53 0.000185755
15 *43:45 *100:B1 4.00259e-06
16 *43:45 *44:31 6.97002e-05
17 *43:45 *44:41 5.70419e-05
18 *43:60 *44:53 3.70094e-05
19 *88:A *94:B 5.90675e-06
20 *88:A *43:45 0.000316089
21 *94:A *94:B 0.000122044
22 *94:A *43:45 0.000173278
23 *102:B *94:B 9.84851e-05
24 *102:B *106:A3 1.67942e-05
25 *102:B *43:60 3.56537e-05
26 *103:B *94:B 7.53384e-06
27 *103:B *43:45 2.44913e-05
28 *111:CLK *43:14 0.000392593
29 *113:CLK *43:14 9.26098e-05
30 *116:A *98:A1 3.22879e-05
31 *116:A *43:14 0
32 *117:A *43:14 0
33 *5:10 *43:14 0
34 *11:8 *98:A1 0.0002246
35 *11:8 *43:14 0.000264735
36 *15:8 *43:60 2.1199e-05
37 *15:14 *106:A3 0.000269775
38 *17:21 *98:A1 5.12055e-06
39 *23:12 *43:45 8.47399e-05
40 *28:10 *43:45 2.77993e-05
41 *40:21 *43:45 1.12487e-05
42 *42:29 *43:14 0
43 *42:29 *43:33 0.000136486
44 *42:31 *43:33 0.0001269
45 *42:35 *43:33 2.96051e-05
46 *42:35 *43:45 0
47 *42:60 *43:45 0.000100069
48 *42:82 *101:B 4.17736e-05
49 *42:96 *101:B 9.5877e-05
*RES
1 *112:Q *43:4 23 
2 *43:4 *43:14 43.8993 
3 *43:14 *98:A1 26.0243 
4 *43:14 *43:33 36.1936 
5 *43:33 *43:45 40.0879 
6 *43:45 *94:B 27.8264 
7 *43:45 *43:60 16.5536 
8 *43:60 *101:B 39.5743 
9 *43:60 *106:A3 43.6136 
10 *43:33 *100:A2 23 
11 *43:4 *126:A 24.4707 
*END

*D_NET *44 0.004605
*CONN
*I *118:A I *D sky130_fd_sc_hd__dlygate4sd3_1
*I *100:B1 I *D sky130_fd_sc_hd__a21o_1
*I *101:C I *D sky130_fd_sc_hd__nand3_1
*I *107:B I *D sky130_fd_sc_hd__nand2b_1
*I *127:A I *D sky130_fd_sc_hd__buf_2
*I *113:Q O *D sky130_fd_sc_hd__dfxtp_1
*CAP
1 *118:A 0
2 *100:B1 2.1727e-05
3 *101:C 0
4 *107:B 0
5 *127:A 0
6 *113:Q 0.000156004
7 *44:53 0.000375916
8 *44:41 0.000707199
9 *44:31 0.00062525
10 *44:22 0.000172488
11 *44:16 0.00055136
12 *44:14 0.000147569
13 *44:10 0.000196941
14 *44:53 *47:10 3.41998e-06
15 counter[0] *44:10 4.3407e-05
16 *100:A1 *44:31 5.56356e-05
17 *101:B *44:53 9.67842e-05
18 *104:B1 *44:41 0.000108981
19 *106:A3 *44:53 0.000185755
20 *106:B1 *44:53 0
21 *6:10 *44:10 0.000139713
22 *13:10 *44:41 5.50049e-05
23 *15:8 *44:53 0.000109388
24 *15:14 *44:53 6.22008e-05
25 *17:21 *44:53 0.000112656
26 *19:10 *44:53 0
27 *23:12 *44:53 0
28 *40:21 *44:41 6.4393e-05
29 *42:31 *44:41 2.79064e-05
30 *42:35 *44:22 0
31 *42:35 *44:41 1.19796e-05
32 *42:60 *44:16 7.58527e-05
33 *42:60 *44:22 5.31156e-05
34 *42:60 *44:31 0.00012463
35 *42:82 *44:41 0.000113088
36 *42:82 *44:53 3.88766e-05
37 *43:45 *100:B1 4.00259e-06
38 *43:45 *44:31 6.97002e-05
39 *43:45 *44:41 5.70419e-05
40 *43:60 *44:53 3.70094e-05
*RES
1 *113:Q *44:10 41.0036 
2 *44:10 *44:14 15.6214 
3 *44:14 *44:16 2.05071 
4 *44:16 *44:22 33.3143 
5 *44:22 *127:A 23 
6 *44:16 *44:31 5.88286 
7 *44:31 *44:41 36.4836 
8 *44:41 *44:53 37.8196 
9 *44:53 *107:B 23 
10 *44:41 *101:C 23 
11 *44:31 *100:B1 23.4971 
12 *44:14 *118:A 23 
*END

*D_NET *45 0.00360591
*CONN
*I *128:A I *D sky130_fd_sc_hd__buf_2
*I *120:A I *D sky130_fd_sc_hd__dlygate4sd3_1
*I *108:B1 I *D sky130_fd_sc_hd__a31o_1
*I *114:Q O *D sky130_fd_sc_hd__dfxtp_1
*CAP
1 *128:A 0.000304357
2 *120:A 0
3 *108:B1 0
4 *114:Q 0
5 *45:32 0.000660114
6 *45:12 0.000877188
7 *45:6 0.000521432
8 *45:32 *47:10 0.000221992
9 *92:B1 *45:32 2.93747e-05
10 *99:A2 *45:12 2.83927e-05
11 *99:A2 *45:32 0.000132099
12 *109:A *45:32 0.000223687
13 *110:A2 *45:32 0
14 *7:14 *128:A 1.94812e-05
15 *9:11 *128:A 0
16 *14:10 *45:32 0.00014133
17 *16:10 *45:32 8.90336e-06
18 *19:10 *45:32 9.5877e-05
19 *23:12 *45:32 0.000206262
20 *33:10 *45:32 5.50106e-05
21 *37:32 *45:32 4.5051e-05
22 *40:21 *45:32 3.53621e-05
*RES
1 *114:Q *45:6 38 
2 *45:6 *45:12 18.8321 
3 *45:12 *45:32 44.7589 
4 *45:32 *108:B1 23 
5 *45:12 *120:A 23 
6 *45:6 *128:A 43.5929 
*END

*D_NET *46 0.000899487
*CONN
*I *104:A1 I *D sky130_fd_sc_hd__a21oi_1
*I *118:X O *D sky130_fd_sc_hd__dlygate4sd3_1
*CAP
1 *104:A1 0.000234375
2 *118:X 8.05371e-05
3 *46:8 0.000314913
4 *113:CLK *104:A1 5.48293e-05
5 *6:10 *46:8 0
6 *13:10 *104:A1 0.000214832
*RES
1 *118:X *46:8 39.2014 
2 *46:8 *104:A1 41.48 
*END
