*SPEF "ieee 1481-1999"
*DESIGN "counter_dut"
*DATE "11:24:09 Wednesday December 04, 2024"
*VENDOR "The OpenROAD Project"
*PROGRAM "OpenROAD"
*VERSION "edf00dff99f6c40d67a30c0e22a8191c5d2ed9d6"
*DESIGN_FLOW "NAME_SCOPE LOCAL" "PIN_CAP NONE"
*DIVIDER /
*DELIMITER :
*BUS_DELIMITER []
*T_UNIT 1 NS
*C_UNIT 1 PF
*R_UNIT 1 OHM
*L_UNIT 1 HENRY

*NAME_MAP
*3 clk
*4 counter[0]
*5 counter[1]
*6 counter[2]
*7 counter[3]
*8 enable
*9 reset
*10 up_down
*11 _00_
*12 _01_
*13 _02_
*14 _03_
*15 _04_
*16 _05_
*17 _06_
*18 _07_
*19 _08_
*20 _09_
*21 _10_
*22 _11_
*23 _12_
*24 _13_
*25 _14_
*26 _15_
*27 _16_
*28 _17_
*29 _18_
*30 _19_
*31 _20_
*32 _21_
*33 _22_
*34 clknet_0_clk
*35 clknet_1_0__leaf_clk
*36 clknet_1_1__leaf_clk
*37 net1
*38 net2
*39 net3
*40 net4
*41 net5
*42 net6
*43 net7
*44 FILLER_0_15
*45 FILLER_0_27
*46 FILLER_0_29
*47 FILLER_0_3
*48 FILLER_0_35
*49 FILLER_0_47
*50 FILLER_1_35
*51 FILLER_1_43
*52 FILLER_1_6
*53 FILLER_2_26
*54 FILLER_2_3
*55 FILLER_2_37
*56 FILLER_2_45
*57 FILLER_3_3
*58 FILLER_5_19
*59 FILLER_6_26
*60 FILLER_7_18
*61 FILLER_7_27
*62 FILLER_7_32
*63 FILLER_7_40
*64 FILLER_7_48
*65 FILLER_7_6
*66 PHY_EDGE_ROW_0_Left_8
*67 PHY_EDGE_ROW_0_Right_0
*68 PHY_EDGE_ROW_1_Left_9
*69 PHY_EDGE_ROW_1_Right_1
*70 PHY_EDGE_ROW_2_Left_10
*71 PHY_EDGE_ROW_2_Right_2
*72 PHY_EDGE_ROW_3_Left_11
*73 PHY_EDGE_ROW_3_Right_3
*74 PHY_EDGE_ROW_4_Left_12
*75 PHY_EDGE_ROW_4_Right_4
*76 PHY_EDGE_ROW_5_Left_13
*77 PHY_EDGE_ROW_5_Right_5
*78 PHY_EDGE_ROW_6_Left_14
*79 PHY_EDGE_ROW_6_Right_6
*80 PHY_EDGE_ROW_7_Left_15
*81 PHY_EDGE_ROW_7_Right_7
*82 TAP_TAPCELL_ROW_0_16
*83 TAP_TAPCELL_ROW_2_17
*84 TAP_TAPCELL_ROW_4_18
*85 TAP_TAPCELL_ROW_6_19
*86 TAP_TAPCELL_ROW_7_20
*87 _23_
*88 _24_
*89 _25_
*90 _26_
*91 _27_
*92 _28_
*93 _29_
*94 _30_
*95 _31_
*96 _32_
*97 _33_
*98 _34_
*99 _35_
*100 _36_
*101 _37_
*102 _38_
*103 _39_
*104 _40_
*105 _41_
*106 _42_
*107 _43_
*108 _44_
*109 _45_
*110 _46_
*111 _47_
*112 _48_
*113 _49_
*114 clkbuf_0_clk
*115 clkbuf_1_0__f_clk
*116 clkbuf_1_1__f_clk
*117 input1
*118 input2
*119 input3
*120 output4
*121 output5
*122 output6
*123 output7

*PORTS
clk I
counter[0] O
counter[1] O
counter[2] O
counter[3] O
enable I
reset I
up_down I

*D_NET *3 0.00136815
*CONN
*P clk I
*I *114:A I *D sky130_fd_sc_hd__clkbuf_16
*CAP
1 clk 0.000647296
2 *114:A 0.000647296
3 *114:A *98:A1 4.19624e-06
4 *114:A *98:B1 9.60337e-06
5 *114:A *117:A 3.71658e-05
6 *114:A *119:A 2.25951e-05
*RES
1 clk *114:A 19.2759 
*END

*D_NET *4 0.00109726
*CONN
*P counter[0] O
*I *120:X O *D sky130_fd_sc_hd__buf_1
*CAP
1 counter[0] 0.000311906
2 *120:X 0.000311906
3 counter[0] counter[1] 0.000141103
4 counter[0] counter[2] 0
5 counter[0] *40:12 0.000264576
6 counter[0] *42:10 6.7765e-05
*RES
1 *120:X counter[0] 22.0693 
*END

*D_NET *5 0.000811918
*CONN
*P counter[1] O
*I *121:X O *D sky130_fd_sc_hd__buf_1
*CAP
1 counter[1] 0.00024043
2 *121:X 0.00024043
3 counter[1] counter[2] 7.29049e-05
4 counter[1] *40:12 3.18676e-05
5 counter[1] *40:21 1.64616e-05
6 counter[1] *42:10 6.87203e-05
7 counter[0] counter[1] 0.000141103
*RES
1 *121:X counter[1] 20.4258 
*END

*D_NET *6 0.000539146
*CONN
*P counter[2] O
*I *122:X O *D sky130_fd_sc_hd__buf_1
*CAP
1 counter[2] 0.000221701
2 *122:X 0.000221701
3 counter[2] *99:B1 2.28378e-05
4 counter[0] counter[2] 0
5 counter[1] counter[2] 7.29049e-05
*RES
1 *122:X counter[2] 18.4264 
*END

*D_NET *7 0.000657663
*CONN
*P counter[3] O
*I *123:X O *D sky130_fd_sc_hd__buf_1
*CAP
1 counter[3] 0.000314616
2 *123:X 0.000314616
3 counter[3] *118:A 2.84302e-05
*RES
1 *123:X counter[3] 20.4803 
*END

*D_NET *8 0.000965904
*CONN
*P enable I
*I *117:A I *D sky130_fd_sc_hd__buf_1
*CAP
1 enable 0.000297735
2 *117:A 0.000297735
3 *117:A *118:A 0.00026242
4 *117:A *38:8 7.08482e-05
5 *114:A *117:A 3.71658e-05
*RES
1 enable *117:A 22.8161 
*END

*D_NET *9 0.000782383
*CONN
*P reset I
*I *118:A I *D sky130_fd_sc_hd__buf_1
*CAP
1 reset 0.000245766
2 *118:A 0.000245766
3 counter[3] *118:A 2.84302e-05
4 *117:A *118:A 0.00026242
*RES
1 reset *118:A 21.0874 
*END

*D_NET *10 0.000704644
*CONN
*P up_down I
*I *119:A I *D sky130_fd_sc_hd__buf_1
*CAP
1 up_down 0.000341025
2 *119:A 0.000341025
3 *114:A *119:A 2.25951e-05
*RES
1 up_down *119:A 21.6946 
*END

*D_NET *11 0.000824668
*CONN
*I *110:D I *D sky130_fd_sc_hd__dfxtp_2
*I *92:Y O *D sky130_fd_sc_hd__o21ai_1
*CAP
1 *110:D 0.00017714
2 *92:Y 0.00017714
3 *110:D *97:A1 0.000228812
4 *110:D *104:A1 1.02504e-05
5 *110:D *108:A 2.51343e-06
6 *110:D *110:CLK 5.33005e-05
7 *110:D *16:8 0.000175512
*RES
1 *92:Y *110:D 31.4795 
*END

*D_NET *12 0.000517982
*CONN
*I *111:D I *D sky130_fd_sc_hd__dfxtp_1
*I *98:X O *D sky130_fd_sc_hd__a31o_1
*CAP
1 *111:D 0.000218189
2 *98:X 0.000218189
3 *111:D *98:A3 8.16036e-05
4 *111:D *111:CLK 0
*RES
1 *98:X *111:D 31.7652 
*END

*D_NET *13 0.000438892
*CONN
*I *112:D I *D sky130_fd_sc_hd__dfxtp_1
*I *104:Y O *D sky130_fd_sc_hd__o21ai_1
*CAP
1 *112:D 0.000135508
2 *104:Y 0.000135508
3 *112:D *92:B1 3.35779e-05
4 *112:D *112:CLK 0.000134298
5 *112:D *40:12 0
*RES
1 *104:Y *112:D 30.3366 
*END

*D_NET *14 0.000322434
*CONN
*I *113:D I *D sky130_fd_sc_hd__dfxtp_1
*I *109:X O *D sky130_fd_sc_hd__a31o_1
*CAP
1 *113:D 0.000142347
2 *109:X 0.000142347
3 *113:D *109:A2 3.69047e-06
4 *113:D *15:38 3.40504e-05
5 *113:D *17:45 0
*RES
1 *109:X *113:D 20.783 
*END

*D_NET *15 0.0036902
*CONN
*I *88:B I *D sky130_fd_sc_hd__nand2_1
*I *109:A1 I *D sky130_fd_sc_hd__a31o_1
*I *98:A2 I *D sky130_fd_sc_hd__a31o_1
*I *89:A I *D sky130_fd_sc_hd__nor2_1
*I *87:Y O *D sky130_fd_sc_hd__inv_2
*CAP
1 *88:B 0.000182662
2 *109:A1 0
3 *98:A2 0.000116737
4 *89:A 0.000212579
5 *87:Y 4.2714e-05
6 *15:38 0.000681449
7 *15:21 0.000747663
8 *15:6 0.000387433
9 *88:B *91:B1 0.000256405
10 *88:B *16:8 0.000128161
11 *88:B *17:45 2.14757e-05
12 *88:B *37:43 7.27028e-05
13 *89:A *111:CLK 0
14 *89:A *37:16 3.25247e-05
15 *98:A2 *98:A1 0.000246908
16 *98:A2 *98:A3 1.02504e-05
17 *98:A2 *113:CLK 2.34204e-05
18 *98:A2 *37:16 9.91086e-05
19 *15:6 *90:B 1.55885e-05
20 *15:6 *107:B1 6.05161e-06
21 *15:21 *90:B 2.24079e-05
22 *15:21 *107:A2 1.24368e-05
23 *15:21 *107:B1 5.33433e-05
24 *15:38 *90:B 0
25 *15:38 *109:A2 7.02611e-05
26 *15:38 *113:CLK 8.6432e-05
27 *15:38 *37:10 7.83587e-05
28 *15:38 *37:16 4.90803e-05
29 *15:38 *43:23 0
30 *113:D *15:38 3.40504e-05
*RES
1 *87:Y *15:6 9.83571 
2 *15:6 *89:A 22.3714 
3 *15:6 *15:21 6.26786 
4 *15:21 *98:A2 18.175 
5 *15:21 *15:38 12.7143 
6 *15:38 *109:A1 9.3 
7 *15:38 *88:B 23.4429 
*END

*D_NET *16 0.00276344
*CONN
*I *92:A2 I *D sky130_fd_sc_hd__o21ai_1
*I *104:A1 I *D sky130_fd_sc_hd__o21ai_1
*I *88:Y O *D sky130_fd_sc_hd__nand2_1
*CAP
1 *92:A2 0
2 *104:A1 0.000197482
3 *88:Y 0.000183688
4 *16:8 0.00038117
5 *104:A1 *97:A1 0.000223349
6 *104:A1 *103:B1 9.41642e-05
7 *104:A1 *116:A 0.000200413
8 *104:A1 *121:A 0.000188536
9 *104:A1 *30:10 2.39779e-05
10 *104:A1 *34:6 2.23592e-05
11 *104:A1 *40:21 8.59075e-05
12 *104:A1 *40:25 0.000271103
13 *104:A1 *40:37 0.000180348
14 *16:8 *91:B1 8.16036e-05
15 *16:8 *92:B1 0
16 *16:8 *97:A1 1.08359e-05
17 *16:8 *110:CLK 2.28428e-05
18 *16:8 *116:A 0.000281736
19 *16:8 *37:43 0
20 *88:B *16:8 0.000128161
21 *110:D *104:A1 1.02504e-05
22 *110:D *16:8 0.000175512
*RES
1 *88:Y *16:8 19.6929 
2 *16:8 *104:A1 22.0143 
3 *16:8 *92:A2 13.8 
*END

*D_NET *17 0.00538688
*CONN
*I *103:B1 I *D sky130_fd_sc_hd__a21oi_1
*I *91:B1 I *D sky130_fd_sc_hd__a21oi_1
*I *109:B1 I *D sky130_fd_sc_hd__a31o_1
*I *97:B1 I *D sky130_fd_sc_hd__a21o_1
*I *89:Y O *D sky130_fd_sc_hd__nor2_1
*CAP
1 *103:B1 0.000266246
2 *91:B1 0.000381038
3 *109:B1 0
4 *97:B1 2.78045e-05
5 *89:Y 0.000348344
6 *17:45 0.000468964
7 *17:28 0.000340024
8 *17:22 0.000838884
9 *91:B1 *91:A2 0.000185124
10 *91:B1 *92:B1 4.50349e-06
11 *97:B1 *103:A2 1.02504e-05
12 *97:B1 *109:A3 1.18064e-05
13 *97:B1 *18:16 4.29471e-05
14 *103:B1 *97:A1 7.08297e-05
15 *103:B1 *101:B 3.34295e-05
16 *103:B1 *115:A 0.000177821
17 *103:B1 *34:6 0.000123617
18 *103:B1 *40:37 0.000125287
19 *103:B1 *41:38 1.08359e-05
20 *103:B1 *41:70 6.51946e-05
21 *17:22 *89:B 0.000225659
22 *17:22 *98:B1 0.000144108
23 *17:22 *115:A 0.0001399
24 *17:22 *40:37 9.31893e-05
25 *17:28 *103:A2 0.000358373
26 *17:28 *106:B 0.000150618
27 *17:28 *108:C 1.77672e-05
28 *17:28 *30:10 2.78729e-05
29 *17:28 *37:43 0.000132806
30 *17:45 *18:16 8.27772e-05
31 *17:45 *37:43 2.72083e-05
32 *88:B *91:B1 0.000256405
33 *88:B *17:45 2.14757e-05
34 *104:A1 *103:B1 9.41642e-05
35 *113:D *17:45 0
36 *16:8 *91:B1 8.16036e-05
*RES
1 *89:Y *17:22 17.8 
2 *17:22 *17:28 10.8839 
3 *17:28 *97:B1 14.6839 
4 *17:28 *17:45 6.65179 
5 *17:45 *109:B1 9.3 
6 *17:45 *91:B1 26.3357 
7 *17:22 *103:B1 24.4607 
*END

*D_NET *18 0.00440639
*CONN
*I *91:A2 I *D sky130_fd_sc_hd__a21oi_1
*I *97:A2 I *D sky130_fd_sc_hd__a21o_1
*I *103:A2 I *D sky130_fd_sc_hd__a21oi_1
*I *90:Y O *D sky130_fd_sc_hd__nor2_1
*CAP
1 *91:A2 0.000308555
2 *97:A2 3.67636e-05
3 *103:A2 0.000443837
4 *90:Y 0
5 *18:16 0.000787936
6 *18:4 0.00061589
7 *91:A2 *88:A 0.000122101
8 *91:A2 *91:A1 5.71472e-05
9 *91:A2 *92:B1 3.62581e-05
10 *97:A2 *97:A1 4.90626e-05
11 *97:A2 *108:B 1.38323e-05
12 *97:A2 *109:A3 0.00010158
13 *103:A2 *89:B 0
14 *103:A2 *98:A1 0
15 *103:A2 *98:B1 3.9718e-05
16 *103:A2 *99:A2 1.02504e-05
17 *103:A2 *106:A_N 3.48139e-05
18 *103:A2 *106:B 4.98968e-05
19 *103:A2 *115:A 5.33882e-05
20 *103:A2 *30:10 7.6644e-05
21 *103:A2 *31:10 0.000123288
22 *103:A2 *40:37 0.000110029
23 *103:A2 *41:38 4.56437e-05
24 *103:A2 *41:70 9.22948e-05
25 *18:16 *90:B 0.000210614
26 *18:16 *97:A1 0
27 *18:16 *108:B 9.60939e-05
28 *18:16 *109:A3 0.000211279
29 *18:16 *37:43 0
30 *91:B1 *91:A2 0.000185124
31 *97:B1 *103:A2 1.02504e-05
32 *97:B1 *18:16 4.29471e-05
33 *17:28 *103:A2 0.000358373
34 *17:45 *18:16 8.27772e-05
*RES
1 *90:Y *18:4 9.3 
2 *18:4 *18:16 16.7143 
3 *18:16 *103:A2 37.3179 
4 *18:16 *97:A2 10.7107 
5 *18:4 *91:A2 15.6036 
*END

*D_NET *19 0.00177949
*CONN
*I *92:B1 I *D sky130_fd_sc_hd__o21ai_1
*I *91:Y O *D sky130_fd_sc_hd__a21oi_1
*CAP
1 *92:B1 0.000764728
2 *91:Y 0.000764728
3 *92:B1 *91:A1 3.80953e-06
4 *92:B1 *92:A1 7.39353e-06
5 *92:B1 *112:CLK 0.00016449
6 *91:A2 *92:B1 3.62581e-05
7 *91:B1 *92:B1 4.50349e-06
8 *112:D *92:B1 3.35779e-05
9 *16:8 *92:B1 0
*RES
1 *91:Y *92:B1 39.3679 
*END

*D_NET *20 0.000824348
*CONN
*I *95:B I *D sky130_fd_sc_hd__nand2_1
*I *94:B I *D sky130_fd_sc_hd__or2_1
*I *93:X O *D sky130_fd_sc_hd__xor2_1
*CAP
1 *95:B 0.000144641
2 *94:B 0
3 *93:X 4.08201e-05
4 *20:8 0.000185461
5 *95:B *93:B 3.14078e-05
6 *95:B *96:A 1.04232e-05
7 *95:B *96:B 4.22908e-05
8 *95:B *98:A3 7.41433e-05
9 *95:B *99:A2 0
10 *95:B *102:A 3.48705e-05
11 *95:B *21:6 2.4871e-05
12 *95:B *39:8 9.90367e-05
13 *95:B *39:19 4.27935e-05
14 *20:8 *93:B 3.64426e-05
15 *20:8 *96:A 0
16 *20:8 *39:8 5.71472e-05
*RES
1 *93:X *20:8 10.5679 
2 *20:8 *94:B 9.3 
3 *20:8 *95:B 13.6929 
*END

*D_NET *21 0.000744166
*CONN
*I *102:A I *D sky130_fd_sc_hd__xnor2_1
*I *96:A I *D sky130_fd_sc_hd__nand2_1
*I *94:X O *D sky130_fd_sc_hd__or2_1
*CAP
1 *102:A 0.000219399
2 *96:A 2.88432e-05
3 *94:X 2.57403e-05
4 *21:6 0.000273983
5 *96:A *96:B 1.97695e-05
6 *102:A *96:B 0.00010096
7 *102:A *99:A2 5.30637e-06
8 *95:B *96:A 1.04232e-05
9 *95:B *102:A 3.48705e-05
10 *95:B *21:6 2.4871e-05
11 *20:8 *96:A 0
*RES
1 *94:X *21:6 9.83571 
2 *21:6 *96:A 10.0321 
3 *21:6 *102:A 13.4429 
*END

*D_NET *22 0.000232152
*CONN
*I *96:B I *D sky130_fd_sc_hd__nand2_1
*I *95:Y O *D sky130_fd_sc_hd__nand2_1
*CAP
1 *96:B 3.4566e-05
2 *95:Y 3.4566e-05
3 *95:B *96:B 4.22908e-05
4 *96:A *96:B 1.97695e-05
5 *102:A *96:B 0.00010096
*RES
1 *95:Y *96:B 19.975 
*END

*D_NET *23 0.00142389
*CONN
*I *98:A3 I *D sky130_fd_sc_hd__a31o_1
*I *96:Y O *D sky130_fd_sc_hd__nand2_1
*CAP
1 *98:A3 0.000412006
2 *96:Y 0.000412006
3 *98:A3 *93:A 0.000153047
4 *98:A3 *111:CLK 0
5 *98:A3 *39:8 0.000227532
6 *98:A3 *39:19 5.33005e-05
7 *98:A3 *40:37 0
8 *95:B *98:A3 7.41433e-05
9 *98:A2 *98:A3 1.02504e-05
10 *111:D *98:A3 8.16036e-05
*RES
1 *96:Y *98:A3 35.0821 
*END

*D_NET *24 0.00103844
*CONN
*I *98:B1 I *D sky130_fd_sc_hd__a31o_1
*I *97:X O *D sky130_fd_sc_hd__a21o_1
*CAP
1 *98:B1 0.000197565
2 *97:X 0.000197565
3 *98:B1 *89:B 2.28499e-05
4 *98:B1 *98:A1 0
5 *98:B1 *107:A2 7.83659e-05
6 *98:B1 *115:A 0.000104974
7 *98:B1 *37:37 0.000100831
8 *98:B1 *40:37 0.000142856
9 *103:A2 *98:B1 3.9718e-05
10 *114:A *98:B1 9.60337e-06
11 *17:22 *98:B1 0.000144108
*RES
1 *97:X *98:B1 33.4393 
*END

*D_NET *25 0.00056079
*CONN
*I *101:A I *D sky130_fd_sc_hd__nand2_1
*I *99:X O *D sky130_fd_sc_hd__a21o_1
*CAP
1 *101:A 0.000272334
2 *99:X 0.000272334
3 *101:A *99:A2 1.61232e-05
4 *101:A *101:B 0
*RES
1 *99:X *101:A 31.85 
*END

*D_NET *26 0.00169315
*CONN
*I *101:B I *D sky130_fd_sc_hd__nand2_1
*I *105:B1 I *D sky130_fd_sc_hd__o31ai_1
*I *100:Y O *D sky130_fd_sc_hd__nand3_1
*CAP
1 *101:B 0.000300875
2 *105:B1 0.000110182
3 *100:Y 5.5037e-05
4 *26:8 0.000466094
5 *101:B *95:A 0
6 *101:B *99:A2 0.00012501
7 *101:B *102:B 0.000133004
8 *101:B *104:A2 0
9 *101:B *41:38 3.34295e-05
10 *105:B1 *100:B 2.59355e-05
11 *105:B1 *106:B 4.33174e-05
12 *105:B1 *39:36 4.87854e-05
13 *105:B1 *41:36 0.0002274
14 *26:8 *100:A 2.34188e-05
15 *26:8 *100:B 3.88213e-05
16 *26:8 *104:B1 2.84109e-05
17 *101:A *101:B 0
18 *103:B1 *101:B 3.34295e-05
*RES
1 *100:Y *26:8 10.675 
2 *26:8 *105:B1 12.3179 
3 *26:8 *101:B 24.1214 
*END

*D_NET *27 0.000459293
*CONN
*I *102:B I *D sky130_fd_sc_hd__xnor2_1
*I *101:Y O *D sky130_fd_sc_hd__nand2_1
*CAP
1 *102:B 0.000150177
2 *101:Y 0.000150177
3 *102:B *99:A2 2.59355e-05
4 *101:B *102:B 0.000133004
*RES
1 *101:Y *102:B 30.3143 
*END

*D_NET *28 0.00131201
*CONN
*I *104:A2 I *D sky130_fd_sc_hd__o21ai_1
*I *102:Y O *D sky130_fd_sc_hd__xnor2_1
*CAP
1 *104:A2 0.000407568
2 *102:Y 0.000407568
3 *104:A2 *99:A1 7.6021e-05
4 *104:A2 *99:A2 0.000187042
5 *104:A2 *104:B1 7.6644e-05
6 *104:A2 *121:A 0.000136682
7 *104:A2 *40:84 2.04866e-05
8 *101:B *104:A2 0
*RES
1 *102:Y *104:A2 34.1893 
*END

*D_NET *29 0.000933411
*CONN
*I *104:B1 I *D sky130_fd_sc_hd__o21ai_1
*I *103:Y O *D sky130_fd_sc_hd__a21oi_1
*CAP
1 *104:B1 0.000285859
2 *103:Y 0.000285859
3 *104:B1 *100:A 0.000133342
4 *104:B1 *40:84 0.000123295
5 *104:A2 *104:B1 7.6644e-05
6 *26:8 *104:B1 2.84109e-05
*RES
1 *103:Y *104:B1 32.2429 
*END

*D_NET *30 0.00324112
*CONN
*I *108:C I *D sky130_fd_sc_hd__nand4_1
*I *107:A2 I *D sky130_fd_sc_hd__a31o_1
*I *105:Y O *D sky130_fd_sc_hd__o31ai_1
*CAP
1 *108:C 7.09417e-05
2 *107:A2 0.000488959
3 *105:Y 0.000258675
4 *30:10 0.000818576
5 *107:A2 *90:B 2.14757e-05
6 *107:A2 *106:B 3.82227e-06
7 *107:A2 *107:A3 0.000180764
8 *107:A2 *109:A2 8.50152e-05
9 *107:A2 *113:CLK 3.25078e-05
10 *107:A2 *31:10 7.79781e-06
11 *107:A2 *37:37 9.60875e-05
12 *107:A2 *38:8 0
13 *108:C *108:D 5.59013e-05
14 *108:C *116:A 0.000148196
15 *108:C *37:43 1.08359e-05
16 *30:10 *97:A1 1.47917e-05
17 *30:10 *106:A_N 0.000312743
18 *30:10 *116:A 0.00020112
19 *30:10 *41:36 0.000182694
20 *30:10 *41:70 1.31516e-05
21 *98:B1 *107:A2 7.83659e-05
22 *103:A2 *30:10 7.6644e-05
23 *104:A1 *30:10 2.39779e-05
24 *15:21 *107:A2 1.24368e-05
25 *17:28 *108:C 1.77672e-05
26 *17:28 *30:10 2.78729e-05
*RES
1 *105:Y *30:10 20.55 
2 *30:10 *107:A2 30.1571 
3 *30:10 *108:C 15.7464 
*END

*D_NET *31 0.00169554
*CONN
*I *108:D I *D sky130_fd_sc_hd__nand4_1
*I *107:A3 I *D sky130_fd_sc_hd__a31o_1
*I *106:Y O *D sky130_fd_sc_hd__nand2b_1
*CAP
1 *108:D 7.46633e-05
2 *107:A3 0.000111683
3 *106:Y 5.19981e-05
4 *31:10 0.000238345
5 *107:A3 *90:B 0.000182694
6 *107:A3 *108:B 1.21289e-05
7 *107:A3 *109:A3 9.59774e-05
8 *107:A3 *37:37 5.33005e-05
9 *108:D *108:A 5.52302e-05
10 *108:D *109:A3 0.000175892
11 *108:D *37:37 0.000122591
12 *108:D *37:43 5.41794e-05
13 *31:10 *37:37 9.91086e-05
14 *103:A2 *31:10 0.000123288
15 *107:A2 *107:A3 0.000180764
16 *107:A2 *31:10 7.79781e-06
17 *108:C *108:D 5.59013e-05
*RES
1 *106:Y *31:10 19.9429 
2 *31:10 *107:A3 12.8536 
3 *31:10 *108:D 20.8 
*END

*D_NET *32 0.00106043
*CONN
*I *109:A2 I *D sky130_fd_sc_hd__a31o_1
*I *107:X O *D sky130_fd_sc_hd__a31o_1
*CAP
1 *109:A2 0.000234788
2 *107:X 0.000234788
3 *109:A2 *90:B 0.000196269
4 *109:A2 *113:CLK 0.000235618
5 *107:A2 *109:A2 8.50152e-05
6 *113:D *109:A2 3.69047e-06
7 *15:38 *109:A2 7.02611e-05
*RES
1 *107:X *109:A2 32.9571 
*END

*D_NET *33 0.00121784
*CONN
*I *109:A3 I *D sky130_fd_sc_hd__a31o_1
*I *108:Y O *D sky130_fd_sc_hd__nand4_1
*CAP
1 *109:A3 0.000174688
2 *108:Y 0.000174688
3 *109:A3 *90:B 0.000175519
4 *109:A3 *97:A1 3.97677e-05
5 *109:A3 *108:A 3.51668e-05
6 *109:A3 *108:B 2.14757e-05
7 *97:A2 *109:A3 0.00010158
8 *97:B1 *109:A3 1.18064e-05
9 *107:A3 *109:A3 9.59774e-05
10 *108:D *109:A3 0.000175892
11 *18:16 *109:A3 0.000211279
*RES
1 *108:Y *109:A3 33.8321 
*END

*D_NET *34 0.00263057
*CONN
*I *116:A I *D sky130_fd_sc_hd__clkbuf_16
*I *115:A I *D sky130_fd_sc_hd__clkbuf_16
*I *114:X O *D sky130_fd_sc_hd__clkbuf_16
*CAP
1 *116:A 0.000159107
2 *115:A 0.000270243
3 *114:X 0.00013587
4 *34:6 0.00056522
5 *116:A *37:43 4.66096e-05
6 *98:B1 *115:A 0.000104974
7 *103:A2 *115:A 5.33882e-05
8 *103:B1 *115:A 0.000177821
9 *103:B1 *34:6 0.000123617
10 *104:A1 *116:A 0.000200413
11 *104:A1 *34:6 2.23592e-05
12 *108:C *116:A 0.000148196
13 *16:8 *116:A 0.000281736
14 *17:22 *115:A 0.0001399
15 *30:10 *116:A 0.00020112
*RES
1 *114:X *34:6 11.0679 
2 *34:6 *115:A 22.6393 
3 *34:6 *116:A 24.4964 
*END

*D_NET *35 0.00257671
*CONN
*I *113:CLK I *D sky130_fd_sc_hd__dfxtp_1
*I *111:CLK I *D sky130_fd_sc_hd__dfxtp_1
*I *115:X O *D sky130_fd_sc_hd__clkbuf_16
*CAP
1 *113:CLK 0.000535153
2 *111:CLK 0.000467611
3 *115:X 0
4 *35:4 0.00100276
5 *113:CLK *37:16 9.41642e-05
6 *113:CLK *37:37 9.90431e-05
7 *89:A *111:CLK 0
8 *98:A2 *113:CLK 2.34204e-05
9 *98:A3 *111:CLK 0
10 *107:A2 *113:CLK 3.25078e-05
11 *109:A2 *113:CLK 0.000235618
12 *111:D *111:CLK 0
13 *15:38 *113:CLK 8.6432e-05
*RES
1 *115:X *35:4 9.3 
2 *35:4 *111:CLK 25.6571 
3 *35:4 *113:CLK 26.6036 
*END

*D_NET *36 0.00224846
*CONN
*I *112:CLK I *D sky130_fd_sc_hd__dfxtp_1
*I *110:CLK I *D sky130_fd_sc_hd__dfxtp_2
*I *116:X O *D sky130_fd_sc_hd__clkbuf_16
*CAP
1 *112:CLK 0.000395631
2 *110:CLK 0.000285437
3 *116:X 0.00019875
4 *36:6 0.000879817
5 *110:CLK *97:A1 5.33614e-05
6 *112:CLK *92:A1 6.05299e-05
7 *112:CLK *97:A1 0
8 *112:CLK *40:12 0
9 *92:B1 *112:CLK 0.00016449
10 *110:D *110:CLK 5.33005e-05
11 *112:D *112:CLK 0.000134298
12 *16:8 *110:CLK 2.28428e-05
*RES
1 *116:X *36:6 11.4786 
2 *36:6 *110:CLK 22.6571 
3 *36:6 *112:CLK 26.4429 
*END

*D_NET *37 0.00485145
*CONN
*I *107:A1 I *D sky130_fd_sc_hd__a31o_1
*I *108:A I *D sky130_fd_sc_hd__nand4_1
*I *90:A I *D sky130_fd_sc_hd__nor2_1
*I *88:A I *D sky130_fd_sc_hd__nand2_1
*I *98:A1 I *D sky130_fd_sc_hd__a31o_1
*I *117:X O *D sky130_fd_sc_hd__buf_1
*CAP
1 *107:A1 0
2 *108:A 0.000213285
3 *90:A 0
4 *88:A 0.000140297
5 *98:A1 0.000153084
6 *117:X 0.000224785
7 *37:43 0.000416065
8 *37:37 0.000794337
9 *37:16 0.000578173
10 *37:10 0.000344589
11 *98:A1 *40:37 5.80706e-06
12 *108:A *97:A1 1.86517e-05
13 *37:10 *90:B 4.72818e-05
14 *37:10 *107:B1 1.37292e-05
15 *37:10 *108:B 0.000140933
16 *37:10 *38:8 1.32552e-05
17 *37:10 *43:23 9.69119e-06
18 *37:16 *107:B1 2.8266e-06
19 *88:B *37:43 7.27028e-05
20 *89:A *37:16 3.25247e-05
21 *91:A2 *88:A 0.000122101
22 *98:A2 *98:A1 0.000246908
23 *98:A2 *37:16 9.91086e-05
24 *98:B1 *98:A1 0
25 *98:B1 *37:37 0.000100831
26 *103:A2 *98:A1 0
27 *107:A2 *37:37 9.60875e-05
28 *107:A3 *37:37 5.33005e-05
29 *108:C *37:43 1.08359e-05
30 *108:D *108:A 5.52302e-05
31 *108:D *37:37 0.000122591
32 *108:D *37:43 5.41794e-05
33 *109:A3 *108:A 3.51668e-05
34 *110:D *108:A 2.51343e-06
35 *113:CLK *37:16 9.41642e-05
36 *113:CLK *37:37 9.90431e-05
37 *114:A *98:A1 4.19624e-06
38 *116:A *37:43 4.66096e-05
39 *15:38 *37:10 7.83587e-05
40 *15:38 *37:16 4.90803e-05
41 *16:8 *37:43 0
42 *17:28 *37:43 0.000132806
43 *17:45 *37:43 2.72083e-05
44 *18:16 *37:43 0
45 *31:10 *37:37 9.91086e-05
*RES
1 *117:X *37:10 17.425 
2 *37:10 *37:16 7.39286 
3 *37:16 *98:A1 21.4607 
4 *37:16 *37:37 14.6964 
5 *37:37 *37:43 14.8929 
6 *37:43 *88:A 12.3357 
7 *37:43 *90:A 9.3 
8 *37:37 *108:A 12.2107 
9 *37:10 *107:A1 13.8 
*END

*D_NET *38 0.002426
*CONN
*I *90:B I *D sky130_fd_sc_hd__nor2_1
*I *87:A I *D sky130_fd_sc_hd__inv_2
*I *118:X O *D sky130_fd_sc_hd__buf_1
*CAP
1 *90:B 0.000388451
2 *87:A 0
3 *118:X 0.000127268
4 *38:8 0.000515718
5 *90:B *107:B1 9.90431e-05
6 *90:B *108:B 0.00033957
7 *107:A2 *90:B 2.14757e-05
8 *107:A2 *38:8 0
9 *107:A3 *90:B 0.000182694
10 *109:A2 *90:B 0.000196269
11 *109:A3 *90:B 0.000175519
12 *117:A *38:8 7.08482e-05
13 *15:6 *90:B 1.55885e-05
14 *15:21 *90:B 2.24079e-05
15 *15:38 *90:B 0
16 *18:16 *90:B 0.000210614
17 *37:10 *90:B 4.72818e-05
18 *37:10 *38:8 1.32552e-05
*RES
1 *118:X *38:8 11.8 
2 *38:8 *87:A 9.3 
3 *38:8 *90:B 29.6929 
*END

*D_NET *39 0.00463193
*CONN
*I *89:B I *D sky130_fd_sc_hd__nor2_1
*I *106:A_N I *D sky130_fd_sc_hd__nand2b_1
*I *95:A I *D sky130_fd_sc_hd__nand2_1
*I *105:A1 I *D sky130_fd_sc_hd__o31ai_1
*I *94:A I *D sky130_fd_sc_hd__or2_1
*I *119:X O *D sky130_fd_sc_hd__buf_1
*CAP
1 *89:B 0.000390636
2 *106:A_N 0.000141723
3 *95:A 8.86234e-05
4 *105:A1 0
5 *94:A 0
6 *119:X 0.00028497
7 *39:36 0.000386259
8 *39:23 0.000164783
9 *39:19 0.000497243
10 *39:8 0.000382707
11 *89:B *106:B 0
12 *89:B *40:37 0.000168688
13 *89:B *41:25 2.31791e-05
14 *95:A *99:A2 3.25247e-05
15 *95:A *106:B 3.17148e-05
16 *106:A_N *99:A2 7.80714e-06
17 *106:A_N *106:B 0.000394073
18 *39:8 *93:A 0.00014285
19 *39:8 *93:B 9.22103e-06
20 *39:19 *93:B 0.000100831
21 *39:19 *106:B 0
22 *39:19 *41:25 6.0038e-05
23 *39:23 *41:25 1.5546e-05
24 *39:36 *106:B 5.33005e-05
25 *39:36 *41:25 0.000100985
26 *39:36 *41:36 2.95641e-05
27 *95:B *39:8 9.90367e-05
28 *95:B *39:19 4.27935e-05
29 *98:A3 *39:8 0.000227532
30 *98:A3 *39:19 5.33005e-05
31 *98:B1 *89:B 2.28499e-05
32 *101:B *95:A 0
33 *103:A2 *89:B 0
34 *103:A2 *106:A_N 3.48139e-05
35 *105:B1 *39:36 4.87854e-05
36 *17:22 *89:B 0.000225659
37 *20:8 *39:8 5.71472e-05
38 *30:10 *106:A_N 0.000312743
*RES
1 *119:X *39:8 15.6036 
2 *39:8 *94:A 9.3 
3 *39:8 *39:19 6.98214 
4 *39:19 *39:23 4.65625 
5 *39:23 *105:A1 9.3 
6 *39:23 *39:36 8.02232 
7 *39:36 *95:A 15.7464 
8 *39:36 *106:A_N 19.0857 
9 *39:19 *89:B 21.425 
*END

*D_NET *40 0.00816117
*CONN
*I *91:A1 I *D sky130_fd_sc_hd__a21oi_1
*I *100:A I *D sky130_fd_sc_hd__nand3_1
*I *99:A1 I *D sky130_fd_sc_hd__a21o_1
*I *92:A1 I *D sky130_fd_sc_hd__o21ai_1
*I *105:A2 I *D sky130_fd_sc_hd__o31ai_1
*I *93:A I *D sky130_fd_sc_hd__xor2_1
*I *120:A I *D sky130_fd_sc_hd__buf_1
*I *110:Q O *D sky130_fd_sc_hd__dfxtp_2
*CAP
1 *91:A1 0.000604063
2 *100:A 9.5342e-05
3 *99:A1 0.000134559
4 *92:A1 0.000294976
5 *105:A2 0.000111458
6 *93:A 0.000239157
7 *120:A 0
8 *110:Q 0
9 *40:84 0.00037625
10 *40:37 0.000724705
11 *40:25 0.00079491
12 *40:21 0.00042953
13 *40:12 0.00043624
14 *40:6 0.000882967
15 *92:A1 *97:A1 3.3395e-05
16 *93:A *93:B 4.01768e-05
17 *93:A *41:25 0
18 *99:A1 *99:B1 5.65955e-05
19 *100:A *100:B 5.65955e-05
20 *100:A *42:29 0.000183022
21 *100:A *42:33 3.24086e-05
22 *105:A2 *41:25 0.000118
23 *105:A2 *41:36 0
24 *40:21 *121:A 2.70794e-05
25 *40:37 *121:A 0.000183027
26 *40:37 *41:25 9.25014e-06
27 counter[0] *40:12 0.000264576
28 counter[1] *40:12 3.18676e-05
29 counter[1] *40:21 1.64616e-05
30 *89:B *40:37 0.000168688
31 *91:A2 *91:A1 5.71472e-05
32 *92:B1 *91:A1 3.80953e-06
33 *92:B1 *92:A1 7.39353e-06
34 *98:A1 *40:37 5.80706e-06
35 *98:A3 *93:A 0.000153047
36 *98:A3 *40:37 0
37 *98:B1 *40:37 0.000142856
38 *103:A2 *40:37 0.000110029
39 *103:B1 *40:37 0.000125287
40 *104:A1 *40:21 8.59075e-05
41 *104:A1 *40:25 0.000271103
42 *104:A1 *40:37 0.000180348
43 *104:A2 *99:A1 7.6021e-05
44 *104:A2 *40:84 2.04866e-05
45 *104:B1 *100:A 0.000133342
46 *104:B1 *40:84 0.000123295
47 *112:CLK *92:A1 6.05299e-05
48 *112:CLK *40:12 0
49 *112:D *40:12 0
50 *17:22 *40:37 9.31893e-05
51 *26:8 *100:A 2.34188e-05
52 *39:8 *93:A 0.00014285
*RES
1 *110:Q *40:6 13.8 
2 *40:6 *40:12 10.625 
3 *40:12 *120:A 9.3 
4 *40:12 *40:21 3.01786 
5 *40:21 *40:25 7.08929 
6 *40:25 *40:37 23.1786 
7 *40:37 *93:A 23.5679 
8 *40:37 *105:A2 11.2911 
9 *40:25 *92:A1 18.425 
10 *40:21 *40:84 7.35714 
11 *40:84 *99:A1 16.2821 
12 *40:84 *100:A 17.3536 
13 *40:6 *91:A1 22.6036 
*END

*D_NET *41 0.00748913
*CONN
*I *97:A1 I *D sky130_fd_sc_hd__a21o_1
*I *121:A I *D sky130_fd_sc_hd__buf_1
*I *100:B I *D sky130_fd_sc_hd__nand3_1
*I *99:A2 I *D sky130_fd_sc_hd__a21o_1
*I *105:A3 I *D sky130_fd_sc_hd__o31ai_1
*I *93:B I *D sky130_fd_sc_hd__xor2_1
*I *111:Q O *D sky130_fd_sc_hd__dfxtp_1
*CAP
1 *97:A1 0.000538208
2 *121:A 0.000299679
3 *100:B 6.69749e-05
4 *99:A2 0.000406321
5 *105:A3 0
6 *93:B 0.000373317
7 *111:Q 0
8 *41:70 0.000885348
9 *41:38 0.000493447
10 *41:36 0.000194107
11 *41:25 0.000217414
12 *41:6 0.000464236
13 *97:A1 *108:B 0.000181796
14 *99:A2 *99:B1 0.000118428
15 *100:B *106:B 1.24368e-05
16 *100:B *42:33 0.000182598
17 *89:B *41:25 2.31791e-05
18 *92:A1 *97:A1 3.3395e-05
19 *93:A *93:B 4.01768e-05
20 *93:A *41:25 0
21 *95:A *99:A2 3.25247e-05
22 *95:B *93:B 3.14078e-05
23 *95:B *99:A2 0
24 *97:A2 *97:A1 4.90626e-05
25 *100:A *100:B 5.65955e-05
26 *101:A *99:A2 1.61232e-05
27 *101:B *99:A2 0.00012501
28 *101:B *41:38 3.34295e-05
29 *102:A *99:A2 5.30637e-06
30 *102:B *99:A2 2.59355e-05
31 *103:A2 *99:A2 1.02504e-05
32 *103:A2 *41:38 4.56437e-05
33 *103:A2 *41:70 9.22948e-05
34 *103:B1 *97:A1 7.08297e-05
35 *103:B1 *41:38 1.08359e-05
36 *103:B1 *41:70 6.51946e-05
37 *104:A1 *97:A1 0.000223349
38 *104:A1 *121:A 0.000188536
39 *104:A2 *99:A2 0.000187042
40 *104:A2 *121:A 0.000136682
41 *105:A2 *41:25 0.000118
42 *105:A2 *41:36 0
43 *105:B1 *100:B 2.59355e-05
44 *105:B1 *41:36 0.0002274
45 *106:A_N *99:A2 7.80714e-06
46 *108:A *97:A1 1.86517e-05
47 *109:A3 *97:A1 3.97677e-05
48 *110:CLK *97:A1 5.33614e-05
49 *110:D *97:A1 0.000228812
50 *112:CLK *97:A1 0
51 *16:8 *97:A1 1.08359e-05
52 *18:16 *97:A1 0
53 *20:8 *93:B 3.64426e-05
54 *26:8 *100:B 3.88213e-05
55 *30:10 *97:A1 1.47917e-05
56 *30:10 *41:36 0.000182694
57 *30:10 *41:70 1.31516e-05
58 *39:8 *93:B 9.22103e-06
59 *39:19 *93:B 0.000100831
60 *39:19 *41:25 6.0038e-05
61 *39:23 *41:25 1.5546e-05
62 *39:36 *41:25 0.000100985
63 *39:36 *41:36 2.95641e-05
64 *40:21 *121:A 2.70794e-05
65 *40:37 *121:A 0.000183027
66 *40:37 *41:25 9.25014e-06
*RES
1 *111:Q *41:6 13.8 
2 *41:6 *93:B 19.675 
3 *41:6 *41:25 7.30357 
4 *41:25 *105:A3 9.3 
5 *41:25 *41:36 7.92857 
6 *41:36 *41:38 0.732143 
7 *41:38 *99:A2 22.2107 
8 *41:38 *100:B 15.9964 
9 *41:36 *41:70 1.64286 
10 *41:70 *121:A 20.2464 
11 *41:70 *97:A1 24.8714 
*END

*D_NET *42 0.00470484
*CONN
*I *122:A I *D sky130_fd_sc_hd__buf_1
*I *100:C I *D sky130_fd_sc_hd__nand3_1
*I *103:A1 I *D sky130_fd_sc_hd__a21oi_1
*I *106:B I *D sky130_fd_sc_hd__nand2b_1
*I *99:B1 I *D sky130_fd_sc_hd__a21o_1
*I *112:Q O *D sky130_fd_sc_hd__dfxtp_1
*CAP
1 *122:A 0
2 *100:C 0
3 *103:A1 0
4 *106:B 0.000354307
5 *99:B1 0.000394274
6 *112:Q 0.00031486
7 *42:33 0.000568457
8 *42:29 0.000442119
9 *42:27 0.00033905
10 *42:10 0.000820215
11 counter[0] *42:10 6.7765e-05
12 counter[1] *42:10 6.87203e-05
13 counter[2] *99:B1 2.28378e-05
14 *89:B *106:B 0
15 *95:A *106:B 3.17148e-05
16 *99:A1 *99:B1 5.65955e-05
17 *99:A2 *99:B1 0.000118428
18 *100:A *42:29 0.000183022
19 *100:A *42:33 3.24086e-05
20 *100:B *106:B 1.24368e-05
21 *100:B *42:33 0.000182598
22 *103:A2 *106:B 4.98968e-05
23 *105:B1 *106:B 4.33174e-05
24 *106:A_N *106:B 0.000394073
25 *107:A2 *106:B 3.82227e-06
26 *17:28 *106:B 0.000150618
27 *39:19 *106:B 0
28 *39:36 *106:B 5.33005e-05
*RES
1 *112:Q *42:10 19.1214 
2 *42:10 *99:B1 20.8179 
3 *42:10 *42:27 6.26786 
4 *42:27 *42:29 4.23214 
5 *42:29 *42:33 3.32143 
6 *42:33 *106:B 25.7866 
7 *42:33 *103:A1 9.3 
8 *42:29 *100:C 9.3 
9 *42:27 *122:A 9.3 
*END

*D_NET *43 0.00330012
*CONN
*I *108:B I *D sky130_fd_sc_hd__nand4_1
*I *107:B1 I *D sky130_fd_sc_hd__a31o_1
*I *123:A I *D sky130_fd_sc_hd__buf_1
*I *113:Q O *D sky130_fd_sc_hd__dfxtp_1
*CAP
1 *108:B 0.000500817
2 *107:B1 7.19292e-05
3 *123:A 0.000113777
4 *113:Q 8.24606e-05
5 *43:23 0.000958567
6 *43:6 0.000582059
7 *90:B *107:B1 9.90431e-05
8 *90:B *108:B 0.00033957
9 *97:A1 *108:B 0.000181796
10 *97:A2 *108:B 1.38323e-05
11 *107:A3 *108:B 1.21289e-05
12 *109:A3 *108:B 2.14757e-05
13 *15:6 *107:B1 6.05161e-06
14 *15:21 *107:B1 5.33433e-05
15 *15:38 *43:23 0
16 *18:16 *108:B 9.60939e-05
17 *37:10 *107:B1 1.37292e-05
18 *37:10 *108:B 0.000140933
19 *37:10 *43:23 9.69119e-06
20 *37:16 *107:B1 2.8266e-06
*RES
1 *113:Q *43:6 10.2464 
2 *43:6 *123:A 20.2464 
3 *43:6 *43:23 9.94643 
4 *43:23 *107:B1 15.4786 
5 *43:23 *108:B 21.8714 
*END
