*SPEF "ieee 1481-1999"
*DESIGN "counter_dut"
*DATE "11:16:33 Wednesday December 04, 2024"
*VENDOR "The OpenROAD Project"
*PROGRAM "OpenROAD"
*VERSION "edf00dff99f6c40d67a30c0e22a8191c5d2ed9d6"
*DESIGN_FLOW "NAME_SCOPE LOCAL" "PIN_CAP NONE"
*DIVIDER /
*DELIMITER :
*BUS_DELIMITER []
*T_UNIT 1 NS
*C_UNIT 1 PF
*R_UNIT 1 OHM
*L_UNIT 1 HENRY

*NAME_MAP
*1 clk
*2 counter[0]
*3 counter[1]
*4 counter[2]
*5 counter[3]
*6 enable
*7 reset
*8 up_down
*11 _00_
*12 _01_
*13 _02_
*14 _03_
*15 _04_
*16 _05_
*17 _06_
*18 _07_
*19 _08_
*20 _09_
*21 _10_
*22 _11_
*23 _12_
*24 _13_
*25 _14_
*26 _15_
*27 _16_
*28 _17_
*29 _18_
*30 _19_
*31 _20_
*32 _21_
*33 _22_
*34 clknet_0_clk
*35 clknet_1_0__leaf_clk
*36 clknet_1_1__leaf_clk
*37 net1
*38 net2
*39 net3
*40 net4
*41 net5
*42 net6
*43 net7
*44 _23_
*45 _24_
*46 _25_
*47 _26_
*48 _27_
*49 _28_
*50 _29_
*51 _30_
*52 _31_
*53 _32_
*54 _33_
*55 _34_
*56 _35_
*57 _36_
*58 _37_
*59 _38_
*60 _39_
*61 _40_
*62 _41_
*63 _42_
*64 _43_
*65 _44_
*66 _45_
*67 _46_
*68 _47_
*69 _48_
*70 _49_
*71 clkbuf_0_clk
*72 clkbuf_1_0__f_clk
*73 clkbuf_1_1__f_clk
*74 input1
*75 input2
*76 input3
*77 output4
*78 output5
*79 output6
*80 output7

*PORTS
clk I
counter[0] O
counter[1] O
counter[2] O
counter[3] O
enable I
reset I
up_down I

*D_NET *1 0.00149728
*CONN
*P clk I
*I *71:A I *D sky130_fd_sc_hd__clkbuf_16
*CAP
1 clk 0.000660266
2 *71:A 0
3 *1:11 0.000660266
4 *1:11 *74:A 5.32136e-05
5 *1:11 *76:A 5.08354e-05
6 *1:11 *17:10 6.16039e-05
7 *1:11 *30:16 0
8 *1:11 *30:39 0
9 *1:11 *41:33 1.10968e-05
*RES
1 clk *1:11 27.1277 
2 *1:11 *71:A 23 
*END

*D_NET *2 0.000401518
*CONN
*P counter[0] O
*I *77:X O *D sky130_fd_sc_hd__buf_1
*CAP
1 counter[0] 0.000175338
2 *77:X 0.000175338
3 counter[0] counter[1] 5.08417e-05
4 counter[0] *40:10 0
*RES
1 *77:X counter[0] 47.5256 
*END

*D_NET *3 0.000505313
*CONN
*P counter[1] O
*I *78:X O *D sky130_fd_sc_hd__buf_1
*CAP
1 counter[1] 0.000200629
2 *78:X 0.000200629
3 counter[1] counter[2] 5.32136e-05
4 counter[1] *40:16 0
5 counter[1] *42:10 0
6 counter[0] counter[1] 5.08417e-05
*RES
1 *78:X counter[1] 48.9342 
*END

*D_NET *4 0.000565125
*CONN
*P counter[2] O
*I *79:X O *D sky130_fd_sc_hd__buf_1
*CAP
1 counter[2] 0.000255956
2 *79:X 0.000255956
3 counter[1] counter[2] 5.32136e-05
*RES
1 *79:X counter[2] 47.4311 
*END

*D_NET *5 0.000325754
*CONN
*P counter[3] O
*I *80:X O *D sky130_fd_sc_hd__buf_1
*CAP
1 counter[3] 0.000137459
2 *80:X 0.000137459
3 counter[3] *75:A 5.08354e-05
*RES
1 *80:X counter[3] 46.8213 
*END

*D_NET *6 0.000429573
*CONN
*P enable I
*I *74:A I *D sky130_fd_sc_hd__buf_1
*CAP
1 enable 0.00013581
2 *74:A 0.00013581
3 *74:A *70:CLK 5.39028e-05
4 *74:A *75:A 5.08354e-05
5 *1:11 *74:A 5.32136e-05
*RES
1 enable *74:A 47.8778 
*END

*D_NET *7 0.0004769
*CONN
*P reset I
*I *75:A I *D sky130_fd_sc_hd__buf_1
*CAP
1 reset 0.000153285
2 *75:A 0.000153285
3 *75:A *70:CLK 6.86591e-05
4 counter[3] *75:A 5.08354e-05
5 *74:A *75:A 5.08354e-05
*RES
1 reset *75:A 48.2299 
*END

*D_NET *8 0.000514198
*CONN
*P up_down I
*I *76:A I *D sky130_fd_sc_hd__buf_1
*CAP
1 up_down 0.000231681
2 *76:A 0.000231681
3 *1:11 *76:A 5.08354e-05
*RES
1 up_down *76:A 48.9342 
*END

*D_NET *11 0.000772259
*CONN
*I *67:D I *D sky130_fd_sc_hd__dfxtp_1
*I *49:Y O *D sky130_fd_sc_hd__o21ai_1
*CAP
1 *67:D 1.06337e-05
2 *49:Y 0.000189964
3 *11:12 0.000200598
4 *67:D *18:20 0
5 *67:D *36:10 3.24476e-06
6 *11:12 *49:B1 0.000228903
7 *11:12 *73:A 0
8 *11:12 *16:8 2.02517e-05
9 *11:12 *16:21 0
10 *11:12 *19:8 0
11 *11:12 *36:10 0.000118665
*RES
1 *49:Y *11:12 43.2821 
2 *11:12 *67:D 38.1916 
*END

*D_NET *12 0.000745703
*CONN
*I *68:D I *D sky130_fd_sc_hd__dfxtp_1
*I *55:X O *D sky130_fd_sc_hd__a31o_1
*CAP
1 *68:D 0.000126457
2 *55:X 0.000246395
3 *12:8 0.000372852
4 *68:D *39:10 0
5 *12:8 *68:CLK 0
6 *12:8 *70:CLK 0
7 *12:8 *30:16 0
*RES
1 *55:X *12:8 43.075 
2 *12:8 *68:D 40.5737 
*END

*D_NET *13 0.000395525
*CONN
*I *69:D I *D sky130_fd_sc_hd__dfxtp_1
*I *61:Y O *D sky130_fd_sc_hd__o21ai_1
*CAP
1 *69:D 0.000173303
2 *61:Y 0.000173303
3 *69:D *53:B 0
4 *69:D *58:A 0
5 *69:D *60:A1 4.47605e-07
6 *69:D *69:CLK 4.30984e-05
7 *69:D *72:A 5.37348e-06
8 *69:D *41:62 0
9 *69:D *42:22 0
10 *69:D *42:49 0
*RES
1 *61:Y *69:D 49.7079 
*END

*D_NET *14 0.000707611
*CONN
*I *70:D I *D sky130_fd_sc_hd__dfxtp_1
*I *66:X O *D sky130_fd_sc_hd__a31o_1
*CAP
1 *70:D 0
2 *66:X 0.000311487
3 *14:8 0.000311487
4 *14:8 *47:B 0
5 *14:8 *66:A3 2.02517e-05
6 *14:8 *80:A 0
7 *14:8 *18:8 3.89661e-05
8 *14:8 *32:10 2.54193e-05
9 *14:8 *37:10 0
*RES
1 *66:X *14:8 29.8823 
2 *14:8 *70:D 23 
*END

*D_NET *15 0.00359389
*CONN
*I *45:B I *D sky130_fd_sc_hd__nand2_1
*I *66:A1 I *D sky130_fd_sc_hd__a31o_1
*I *46:A I *D sky130_fd_sc_hd__nor2_1
*I *55:A2 I *D sky130_fd_sc_hd__a31o_1
*I *44:Y O *D sky130_fd_sc_hd__inv_2
*CAP
1 *45:B 0
2 *66:A1 5.79429e-05
3 *46:A 7.54631e-05
4 *55:A2 0
5 *44:Y 0.000163247
6 *15:38 0.000350237
7 *15:21 0.000538529
8 *15:12 0.000170772
9 *15:10 0.000163247
10 *46:A *63:A_N 0.000187798
11 *46:A *16:21 0
12 *46:A *21:24 1.14452e-05
13 *46:A *23:8 9.26005e-05
14 *46:A *39:40 6.07611e-06
15 *46:A *42:49 1.83564e-05
16 *66:A1 *66:A3 9.00254e-05
17 *66:A1 *66:B1 3.07968e-05
18 *66:A1 *16:8 0
19 *66:A1 *40:91 0
20 *15:10 *64:A1 7.1349e-05
21 *15:10 *70:CLK 0
22 *15:10 *30:16 0.000170613
23 *15:10 *37:10 0.00010655
24 *15:10 *37:26 9.36953e-05
25 *15:21 *55:A3 0.000279364
26 *15:21 *55:B1 0.000143655
27 *15:21 *17:16 0.000178517
28 *15:21 *37:26 2.64616e-05
29 *15:21 *37:35 8.08509e-05
30 *15:38 *63:A_N 0.00018212
31 *15:38 *30:39 4.73716e-05
32 *15:38 *32:10 0
33 *15:38 *37:41 9.27917e-05
34 *15:38 *42:49 0.000164013
*RES
1 *44:Y *15:10 43.7379 
2 *15:10 *15:12 15 
3 *15:12 *55:A2 23 
4 *15:12 *15:21 20.8621 
5 *15:21 *46:A 40.61 
6 *15:21 *15:38 21.5457 
7 *15:38 *66:A1 25.0714 
8 *15:38 *45:B 23 
*END

*D_NET *16 0.00159349
*CONN
*I *61:A1 I *D sky130_fd_sc_hd__o21ai_1
*I *49:A2 I *D sky130_fd_sc_hd__o21ai_1
*I *45:Y O *D sky130_fd_sc_hd__nand2_1
*CAP
1 *61:A1 0
2 *49:A2 0
3 *45:Y 6.75247e-05
4 *16:21 0.000293464
5 *16:8 0.000360989
6 *16:8 *66:A3 0.000139352
7 *16:8 *40:91 3.61695e-05
8 *16:21 *72:A 6.26356e-05
9 *16:21 *73:A 0.000144709
10 *16:21 *21:24 0
11 *16:21 *23:8 0
12 *16:21 *29:14 0
13 *16:21 *33:8 0.00019747
14 *16:21 *37:41 6.00867e-05
15 *16:21 *37:56 0.000172835
16 *16:21 *40:91 3.50723e-05
17 *16:21 *42:49 0
18 *16:21 *43:24 2.92911e-06
19 *46:A *16:21 0
20 *66:A1 *16:8 0
21 *11:12 *16:8 2.02517e-05
22 *11:12 *16:21 0
*RES
1 *45:Y *16:8 25.0714 
2 *16:8 *49:A2 23 
3 *16:8 *16:21 38.8657 
4 *16:21 *61:A1 23 
*END

*D_NET *17 0.00445848
*CONN
*I *66:B1 I *D sky130_fd_sc_hd__a31o_1
*I *54:B1 I *D sky130_fd_sc_hd__a21o_1
*I *60:B1 I *D sky130_fd_sc_hd__a21oi_1
*I *48:B1 I *D sky130_fd_sc_hd__a21oi_1
*I *46:Y O *D sky130_fd_sc_hd__nor2_1
*CAP
1 *66:B1 0.000251886
2 *54:B1 0.00010952
3 *60:B1 0
4 *48:B1 6.04743e-05
5 *46:Y 0.000130421
6 *17:32 0.000466636
7 *17:16 0.000338332
8 *17:10 0.000513507
9 *48:B1 *48:A2 4.34745e-05
10 *48:B1 *60:A1 0.000111596
11 *48:B1 *18:20 0.000120844
12 *54:B1 *64:A3 3.59342e-05
13 *54:B1 *18:8 6.56843e-05
14 *54:B1 *43:24 1.03876e-05
15 *66:B1 *66:A3 1.79651e-05
16 *66:B1 *30:39 0
17 *66:B1 *32:10 0.000145049
18 *66:B1 *40:91 0
19 *66:B1 *41:33 1.05441e-05
20 *66:B1 *43:8 7.73906e-05
21 *17:10 *55:A3 4.57742e-05
22 *17:10 *72:A 0.000136738
23 *17:10 *24:8 2.76611e-06
24 *17:10 *30:16 0
25 *17:10 *41:33 0.000167452
26 *17:16 *55:A3 1.21972e-05
27 *17:16 *60:A1 6.64207e-05
28 *17:16 *72:A 0
29 *17:16 *18:20 9.53796e-05
30 *17:16 *29:14 0.000185434
31 *17:16 *37:35 0.000305437
32 *17:16 *37:56 0.000171296
33 *17:16 *42:49 0.000206646
34 *17:32 *24:8 4.66473e-05
35 *17:32 *30:16 0
36 *17:32 *41:33 0.000219353
37 *17:32 *43:8 1.74874e-06
38 *17:32 *43:24 1.46299e-05
39 *66:A1 *66:B1 3.07968e-05
40 *1:11 *17:10 6.16039e-05
41 *15:21 *17:16 0.000178517
*RES
1 *46:Y *17:10 41.8321 
2 *17:10 *17:16 24.2179 
3 *17:16 *48:B1 25.5479 
4 *17:16 *60:B1 23 
5 *17:10 *17:32 2.96214 
6 *17:32 *54:B1 39.8177 
7 *17:32 *66:B1 43.3857 
*END

*D_NET *18 0.00359036
*CONN
*I *54:A2 I *D sky130_fd_sc_hd__a21o_1
*I *48:A2 I *D sky130_fd_sc_hd__a21oi_1
*I *60:A2 I *D sky130_fd_sc_hd__a21oi_1
*I *47:Y O *D sky130_fd_sc_hd__nor2_1
*CAP
1 *54:A2 0
2 *48:A2 9.9728e-05
3 *60:A2 0
4 *47:Y 0.000222748
5 *18:20 0.000583579
6 *18:8 0.000706599
7 *48:A2 *40:8 0
8 *18:8 *64:A1 4.95081e-05
9 *18:8 *64:A3 3.55586e-05
10 *18:8 *64:B1 0.000269775
11 *18:8 *66:A3 1.32939e-05
12 *18:8 *30:39 5.12055e-06
13 *18:8 *32:10 0.000225399
14 *18:8 *37:10 3.22879e-05
15 *18:20 *63:A_N 0.000166923
16 *18:20 *64:A3 4.38756e-05
17 *18:20 *65:D 1.10105e-05
18 *18:20 *29:14 0.000185434
19 *18:20 *30:39 0
20 *18:20 *37:35 0.000221084
21 *18:20 *37:56 0.000184946
22 *18:20 *41:33 0.000169145
23 *18:20 *43:24 0
24 *48:B1 *48:A2 4.34745e-05
25 *48:B1 *18:20 0.000120844
26 *54:B1 *18:8 6.56843e-05
27 *67:D *18:20 0
28 *14:8 *18:8 3.89661e-05
29 *17:16 *18:20 9.53796e-05
*RES
1 *47:Y *18:8 30.3121 
2 *18:8 *18:20 42.8014 
3 *18:20 *60:A2 23 
4 *18:20 *48:A2 25.0507 
5 *18:8 *54:A2 23 
*END

*D_NET *19 0.00157109
*CONN
*I *49:B1 I *D sky130_fd_sc_hd__o21ai_1
*I *48:Y O *D sky130_fd_sc_hd__a21oi_1
*CAP
1 *49:B1 8.89237e-05
2 *48:Y 0.000183706
3 *19:8 0.00027263
4 *49:B1 *36:10 0.000100488
5 *49:B1 *40:91 0.00048975
6 *19:8 *69:CLK 0
7 *19:8 *36:10 0
8 *19:8 *40:10 5.03449e-05
9 *19:8 *40:91 0.000156346
10 *11:12 *49:B1 0.000228903
11 *11:12 *19:8 0
*RES
1 *48:Y *19:8 43.075 
2 *19:8 *49:B1 43.3857 
*END

*D_NET *20 0.00052787
*CONN
*I *52:B I *D sky130_fd_sc_hd__nand2_1
*I *51:B I *D sky130_fd_sc_hd__or2_1
*I *50:X O *D sky130_fd_sc_hd__xor2_1
*CAP
1 *52:B 6.29655e-05
2 *51:B 0
3 *50:X 4.7223e-05
4 *20:8 0.000110188
5 *52:B *57:A 9.72057e-06
6 *52:B *21:10 5.67058e-05
7 *52:B *39:10 4.1021e-05
8 *52:B *39:12 4.00259e-06
9 *52:B *39:36 9.32114e-05
10 *52:B *41:12 4.04598e-06
11 *52:B *41:19 4.39152e-05
12 *20:8 *39:10 2.78104e-05
13 *20:8 *39:12 9.72057e-06
14 *20:8 *41:12 1.73399e-05
*RES
1 *50:X *20:8 24.4707 
2 *20:8 *51:B 23 
3 *20:8 *52:B 26.0243 
*END

*D_NET *21 0.00137076
*CONN
*I *59:A I *D sky130_fd_sc_hd__xnor2_1
*I *53:A I *D sky130_fd_sc_hd__nand2_1
*I *51:X O *D sky130_fd_sc_hd__or2_1
*CAP
1 *59:A 0
2 *53:A 0
3 *51:X 0.000119104
4 *21:24 0.000114909
5 *21:18 0.000246334
6 *21:10 0.000250528
7 *21:10 *39:22 3.91643e-05
8 *21:10 *39:40 0.000167452
9 *21:10 *41:19 1.94693e-05
10 *21:10 *41:33 3.70187e-05
11 *21:18 *53:B 0
12 *21:18 *58:B 0
13 *21:18 *62:A2 0
14 *21:18 *62:B1 0.000130188
15 *21:18 *30:16 8.91468e-07
16 *21:18 *41:23 1.24376e-05
17 *21:18 *41:45 8.48502e-06
18 *21:24 *22:8 0.000115677
19 *21:24 *28:8 3.4932e-05
20 *21:24 *29:14 0
21 *21:24 *39:40 6.02277e-06
22 *21:24 *42:39 0
23 *46:A *21:24 1.14452e-05
24 *52:B *21:10 5.67058e-05
25 *16:21 *21:24 0
*RES
1 *51:X *21:10 40.8793 
2 *21:10 *21:18 17.6929 
3 *21:18 *21:24 33.3143 
4 *21:24 *53:A 23 
5 *21:18 *59:A 23 
*END

*D_NET *22 0.00110908
*CONN
*I *53:B I *D sky130_fd_sc_hd__nand2_1
*I *52:Y O *D sky130_fd_sc_hd__nand2_1
*CAP
1 *53:B 0.000114797
2 *52:Y 0.000123353
3 *22:8 0.00023815
4 *53:B *59:B 0
5 *53:B *62:B1 0
6 *53:B *69:CLK 0
7 *53:B *72:A 9.91895e-05
8 *22:8 *26:8 6.7177e-06
9 *22:8 *39:40 0.000363322
10 *22:8 *41:51 4.7869e-05
11 *69:D *53:B 0
12 *21:18 *53:B 0
13 *21:24 *22:8 0.000115677
*RES
1 *52:Y *22:8 42.7229 
2 *22:8 *53:B 40.5479 
*END

*D_NET *23 0.00119378
*CONN
*I *55:A3 I *D sky130_fd_sc_hd__a31o_1
*I *53:Y O *D sky130_fd_sc_hd__nand2_1
*CAP
1 *55:A3 0.00031907
2 *53:Y 3.97791e-05
3 *23:8 0.000358849
4 *55:A3 *72:A 3.28496e-05
5 *55:A3 *30:16 0
6 *55:A3 *37:26 1.32939e-05
7 *46:A *23:8 9.26005e-05
8 *15:21 *55:A3 0.000279364
9 *16:21 *23:8 0
10 *17:10 *55:A3 4.57742e-05
11 *17:16 *55:A3 1.21972e-05
*RES
1 *53:Y *23:8 39.2014 
2 *23:8 *55:A3 45.6643 
*END

*D_NET *24 0.000528724
*CONN
*I *55:B1 I *D sky130_fd_sc_hd__a31o_1
*I *54:X O *D sky130_fd_sc_hd__a21o_1
*CAP
1 *55:B1 2.12203e-05
2 *54:X 7.56304e-05
3 *24:8 9.68507e-05
4 *55:B1 *37:35 0.000141954
5 *24:8 *30:16 0
6 *15:21 *55:B1 0.000143655
7 *17:10 *24:8 2.76611e-06
8 *17:32 *24:8 4.66473e-05
*RES
1 *54:X *24:8 39.9057 
2 *24:8 *55:B1 39.5743 
*END

*D_NET *25 9.28044e-05
*CONN
*I *58:A I *D sky130_fd_sc_hd__nand2_1
*I *56:X O *D sky130_fd_sc_hd__a21o_1
*CAP
1 *58:A 1.80493e-05
2 *56:X 1.80493e-05
3 *58:A *41:62 5.67058e-05
4 *69:D *58:A 0
*RES
1 *56:X *58:A 46.6214 
*END

*D_NET *26 0.0011573
*CONN
*I *58:B I *D sky130_fd_sc_hd__nand2_1
*I *62:B1 I *D sky130_fd_sc_hd__o31ai_1
*I *57:Y O *D sky130_fd_sc_hd__nand3_1
*CAP
1 *58:B 5.55703e-05
2 *62:B1 8.38264e-05
3 *57:Y 6.2339e-05
4 *26:10 0.000139397
5 *26:8 6.2339e-05
6 *58:B *59:B 0.000103647
7 *58:B *41:62 0.000184412
8 *58:B *42:22 0
9 *62:B1 *59:B 6.17437e-06
10 *62:B1 *41:23 3.91386e-05
11 *62:B1 *41:45 0.000137651
12 *62:B1 *41:62 5.3304e-05
13 *26:8 *57:C 0
14 *26:8 *41:51 9.26005e-05
15 *53:B *62:B1 0
16 *21:18 *58:B 0
17 *21:18 *62:B1 0.000130188
18 *22:8 *26:8 6.7177e-06
*RES
1 *57:Y *26:8 39.5536 
2 *26:8 *26:10 15 
3 *26:10 *62:B1 25.5479 
4 *26:10 *58:B 25.5479 
*END

*D_NET *27 0.000310963
*CONN
*I *59:B I *D sky130_fd_sc_hd__xnor2_1
*I *58:Y O *D sky130_fd_sc_hd__nand2_1
*CAP
1 *59:B 8.21586e-05
2 *58:Y 8.21586e-05
3 *59:B *61:A2 1.7009e-05
4 *59:B *72:A 0
5 *59:B *41:62 1.98161e-05
6 *53:B *59:B 0
7 *58:B *59:B 0.000103647
8 *62:B1 *59:B 6.17437e-06
*RES
1 *58:Y *59:B 48.5271 
*END

*D_NET *28 0.000282124
*CONN
*I *61:A2 I *D sky130_fd_sc_hd__o21ai_1
*I *59:Y O *D sky130_fd_sc_hd__xnor2_1
*CAP
1 *61:A2 5.37441e-05
2 *59:Y 4.10821e-05
3 *28:8 9.48262e-05
4 *61:A2 *72:A 4.05309e-05
5 *28:8 *42:39 0
6 *59:B *61:A2 1.7009e-05
7 *21:24 *28:8 3.4932e-05
*RES
1 *59:Y *28:8 39.2014 
2 *28:8 *61:A2 39.5743 
*END

*D_NET *29 0.00123341
*CONN
*I *61:B1 I *D sky130_fd_sc_hd__o21ai_1
*I *60:Y O *D sky130_fd_sc_hd__a21oi_1
*CAP
1 *61:B1 0
2 *60:Y 0.000212158
3 *29:14 0.000212158
4 *29:14 *69:CLK 0.000227506
5 *29:14 *40:10 0
6 *29:14 *42:39 0.000210717
7 *16:21 *29:14 0
8 *17:16 *29:14 0.000185434
9 *18:20 *29:14 0.000185434
10 *21:24 *29:14 0
*RES
1 *60:Y *29:14 44.8357 
2 *29:14 *61:B1 38 
*END

*D_NET *30 0.00332299
*CONN
*I *65:C I *D sky130_fd_sc_hd__nand4_1
*I *64:A2 I *D sky130_fd_sc_hd__a31o_1
*I *62:Y O *D sky130_fd_sc_hd__o31ai_1
*CAP
1 *65:C 0
2 *64:A2 0
3 *62:Y 1.97946e-05
4 *30:39 0.000618379
5 *30:16 0.00116562
6 *30:8 0.000567034
7 *30:8 *39:40 9.26005e-05
8 *30:8 *41:33 9.26005e-05
9 *30:16 *62:A2 1.44353e-05
10 *30:16 *72:A 2.19998e-05
11 *30:16 *41:19 0
12 *30:16 *41:33 0
13 *30:16 *43:24 0
14 *30:39 *64:A3 8.84535e-06
15 *30:39 *65:D 4.05745e-05
16 *30:39 *66:A3 3.75094e-05
17 *30:39 *32:10 2.76611e-06
18 *30:39 *42:49 6.663e-05
19 *30:39 *43:24 0.000350203
20 *55:A3 *30:16 0
21 *66:B1 *30:39 0
22 *1:11 *30:16 0
23 *1:11 *30:39 0
24 *12:8 *30:16 0
25 *15:10 *30:16 0.000170613
26 *15:38 *30:39 4.73716e-05
27 *17:10 *30:16 0
28 *17:32 *30:16 0
29 *18:8 *30:39 5.12055e-06
30 *18:20 *30:39 0
31 *21:18 *30:16 8.91468e-07
32 *24:8 *30:16 0
*RES
1 *62:Y *30:8 39.2014 
2 *30:8 *30:16 40.44 
3 *30:16 *64:A2 38 
4 *30:16 *30:39 36.3712 
5 *30:39 *65:C 23 
*END

*D_NET *31 0.00118472
*CONN
*I *65:D I *D sky130_fd_sc_hd__nand4_1
*I *64:A3 I *D sky130_fd_sc_hd__a31o_1
*I *63:Y O *D sky130_fd_sc_hd__nand2b_1
*CAP
1 *65:D 0.000134807
2 *64:A3 0.000273632
3 *63:Y 0
4 *31:4 0.000408439
5 *64:A3 *47:A 0
6 *64:A3 *64:B1 8.1796e-05
7 *64:A3 *66:A3 0
8 *64:A3 *37:35 5.29651e-05
9 *64:A3 *42:49 3.97736e-06
10 *65:D *42:49 5.3304e-05
11 *54:B1 *64:A3 3.59342e-05
12 *18:8 *64:A3 3.55586e-05
13 *18:20 *64:A3 4.38756e-05
14 *18:20 *65:D 1.10105e-05
15 *30:39 *64:A3 8.84535e-06
16 *30:39 *65:D 4.05745e-05
*RES
1 *63:Y *31:4 23 
2 *31:4 *64:A3 29.525 
3 *31:4 *65:D 25.9207 
*END

*D_NET *32 0.000733573
*CONN
*I *66:A2 I *D sky130_fd_sc_hd__a31o_1
*I *64:X O *D sky130_fd_sc_hd__a31o_1
*CAP
1 *66:A2 0
2 *64:X 0.000159515
3 *32:10 0.000159515
4 *32:10 *66:A3 1.59094e-05
5 *66:B1 *32:10 0.000145049
6 *14:8 *32:10 2.54193e-05
7 *15:38 *32:10 0
8 *18:8 *32:10 0.000225399
9 *30:39 *32:10 2.76611e-06
*RES
1 *64:X *32:10 42.4329 
2 *32:10 *66:A2 38 
*END

*D_NET *33 0.00128024
*CONN
*I *66:A3 I *D sky130_fd_sc_hd__a31o_1
*I *65:Y O *D sky130_fd_sc_hd__nand4_1
*CAP
1 *66:A3 0.000227346
2 *65:Y 6.63509e-05
3 *33:8 0.000293697
4 *66:A3 *43:24 1.59094e-05
5 *33:8 *37:41 4.7587e-05
6 *33:8 *43:24 9.75702e-05
7 *64:A3 *66:A3 0
8 *66:A1 *66:A3 9.00254e-05
9 *66:B1 *66:A3 1.79651e-05
10 *14:8 *66:A3 2.02517e-05
11 *16:8 *66:A3 0.000139352
12 *16:21 *33:8 0.00019747
13 *18:8 *66:A3 1.32939e-05
14 *30:39 *66:A3 3.75094e-05
15 *32:10 *66:A3 1.59094e-05
*RES
1 *65:Y *33:8 40.61 
2 *33:8 *66:A3 43.2821 
*END

*D_NET *34 0.00215951
*CONN
*I *73:A I *D sky130_fd_sc_hd__clkbuf_16
*I *72:A I *D sky130_fd_sc_hd__clkbuf_16
*I *71:X O *D sky130_fd_sc_hd__clkbuf_16
*CAP
1 *73:A 0.00013039
2 *72:A 0.000295668
3 *71:X 0
4 *34:6 0.000426058
5 *72:A *69:CLK 0.000120405
6 *72:A *42:49 2.87911e-05
7 *73:A *69:CLK 0.000304589
8 *73:A *36:10 0.000138978
9 *73:A *37:56 0.000170604
10 *53:B *72:A 9.91895e-05
11 *55:A3 *72:A 3.28496e-05
12 *59:B *72:A 0
13 *61:A2 *72:A 4.05309e-05
14 *69:D *72:A 5.37348e-06
15 *11:12 *73:A 0
16 *16:21 *72:A 6.26356e-05
17 *16:21 *73:A 0.000144709
18 *17:10 *72:A 0.000136738
19 *17:16 *72:A 0
20 *30:16 *72:A 2.19998e-05
*RES
1 *71:X *34:6 38 
2 *34:6 *72:A 45.8921 
3 *34:6 *73:A 44.1314 
*END

*D_NET *35 0.00147186
*CONN
*I *70:CLK I *D sky130_fd_sc_hd__dfxtp_1
*I *68:CLK I *D sky130_fd_sc_hd__dfxtp_1
*I *72:X O *D sky130_fd_sc_hd__clkbuf_16
*CAP
1 *70:CLK 0.00048151
2 *68:CLK 0.000193141
3 *72:X 0
4 *35:6 0.000674651
5 *68:CLK *39:10 0
6 *74:A *70:CLK 5.39028e-05
7 *75:A *70:CLK 6.86591e-05
8 *12:8 *68:CLK 0
9 *12:8 *70:CLK 0
10 *15:10 *70:CLK 0
*RES
1 *72:X *35:6 38 
2 *35:6 *68:CLK 41.9357 
3 *35:6 *70:CLK 46.2443 
*END

*D_NET *36 0.00210422
*CONN
*I *67:CLK I *D sky130_fd_sc_hd__dfxtp_1
*I *69:CLK I *D sky130_fd_sc_hd__dfxtp_1
*I *73:X O *D sky130_fd_sc_hd__clkbuf_16
*CAP
1 *67:CLK 0
2 *69:CLK 0.000193867
3 *73:X 0.000319069
4 *36:10 0.000512935
5 *69:CLK *42:49 0
6 *36:10 *40:8 0
7 *36:10 *40:91 2.13733e-05
8 *49:B1 *36:10 0.000100488
9 *53:B *69:CLK 0
10 *67:D *36:10 3.24476e-06
11 *69:D *69:CLK 4.30984e-05
12 *72:A *69:CLK 0.000120405
13 *73:A *69:CLK 0.000304589
14 *73:A *36:10 0.000138978
15 *11:12 *36:10 0.000118665
16 *19:8 *69:CLK 0
17 *19:8 *36:10 0
18 *29:14 *69:CLK 0.000227506
*RES
1 *73:X *36:10 46.2443 
2 *36:10 *69:CLK 44.5457 
3 *36:10 *67:CLK 38 
*END

*D_NET *37 0.00455927
*CONN
*I *65:A I *D sky130_fd_sc_hd__nand4_1
*I *45:A I *D sky130_fd_sc_hd__nand2_1
*I *55:A1 I *D sky130_fd_sc_hd__a31o_1
*I *64:A1 I *D sky130_fd_sc_hd__a31o_1
*I *47:A I *D sky130_fd_sc_hd__nor2_1
*I *74:X O *D sky130_fd_sc_hd__buf_1
*CAP
1 *65:A 0
2 *45:A 0
3 *55:A1 2.34823e-05
4 *64:A1 2.81037e-05
5 *47:A 2.00578e-05
6 *74:X 3.90942e-05
7 *37:56 0.000133717
8 *37:41 0.000152391
9 *37:35 0.000507743
10 *37:26 0.000444076
11 *37:10 0.000195295
12 *37:6 0.000385187
13 *47:A *38:8 0
14 *64:A1 *64:B1 5.67058e-05
15 *37:6 *38:8 0
16 *37:10 *47:B 0.000130423
17 *37:10 *38:8 5.67058e-05
18 *37:35 *64:B1 0
19 *37:41 *42:49 0.000190895
20 *37:41 *43:24 9.98109e-05
21 *55:A3 *37:26 1.32939e-05
22 *55:B1 *37:35 0.000141954
23 *64:A3 *47:A 0
24 *64:A3 *37:35 5.29651e-05
25 *73:A *37:56 0.000170604
26 *14:8 *37:10 0
27 *15:10 *64:A1 7.1349e-05
28 *15:10 *37:10 0.00010655
29 *15:10 *37:26 9.36953e-05
30 *15:21 *37:26 2.64616e-05
31 *15:21 *37:35 8.08509e-05
32 *15:38 *37:41 9.27917e-05
33 *16:21 *37:41 6.00867e-05
34 *16:21 *37:56 0.000172835
35 *17:16 *37:35 0.000305437
36 *17:16 *37:56 0.000171296
37 *18:8 *64:A1 4.95081e-05
38 *18:8 *37:10 3.22879e-05
39 *18:20 *37:35 0.000221084
40 *18:20 *37:56 0.000184946
41 *33:8 *37:41 4.7587e-05
*RES
1 *74:X *37:6 23.6214 
2 *37:6 *37:10 5.26143 
3 *37:10 *47:A 23.4971 
4 *37:10 *64:A1 24.5743 
5 *37:6 *37:26 4.90929 
6 *37:26 *55:A1 23.4971 
7 *37:26 *37:35 6.815 
8 *37:35 *37:41 35.075 
9 *37:41 *45:A 23 
10 *37:35 *37:56 34.93 
11 *37:56 *65:A 23 
*END

*D_NET *38 0.000457825
*CONN
*I *47:B I *D sky130_fd_sc_hd__nor2_1
*I *44:A I *D sky130_fd_sc_hd__inv_2
*I *75:X O *D sky130_fd_sc_hd__buf_1
*CAP
1 *47:B 4.49379e-05
2 *44:A 0
3 *75:X 9.04101e-05
4 *38:8 0.000135348
5 *47:A *38:8 0
6 *14:8 *47:B 0
7 *37:6 *38:8 0
8 *37:10 *47:B 0.000130423
9 *37:10 *38:8 5.67058e-05
*RES
1 *75:X *38:8 24.9471 
2 *38:8 *44:A 23 
3 *38:8 *47:B 24.5743 
*END

*D_NET *39 0.00394769
*CONN
*I *52:A I *D sky130_fd_sc_hd__nand2_1
*I *63:A_N I *D sky130_fd_sc_hd__nand2b_1
*I *46:B I *D sky130_fd_sc_hd__nor2_1
*I *51:A I *D sky130_fd_sc_hd__or2_1
*I *62:A1 I *D sky130_fd_sc_hd__o31ai_1
*I *76:X O *D sky130_fd_sc_hd__buf_1
*CAP
1 *52:A 2.18502e-05
2 *63:A_N 0.00021206
3 *46:B 0
4 *51:A 0
5 *62:A1 0
6 *76:X 0.000315805
7 *39:40 0.000352524
8 *39:36 0.000209579
9 *39:22 0.000145328
10 *39:12 0.000159368
11 *39:10 0.000377109
12 *52:A *40:32 1.76557e-05
13 *52:A *41:45 5.27215e-06
14 *63:A_N *41:33 0.000127063
15 *39:10 *62:A2 0
16 *39:10 *40:32 0.000306497
17 *39:10 *41:12 0
18 *39:22 *62:A2 4.07902e-05
19 *39:22 *41:12 0
20 *39:22 *41:19 5.50049e-05
21 *39:22 *41:23 0
22 *39:36 *57:A 5.90675e-06
23 *39:36 *40:32 9.90162e-05
24 *39:36 *41:45 0
25 *39:40 *41:33 9.16119e-05
26 *39:40 *41:51 1.80023e-05
27 *46:A *63:A_N 0.000187798
28 *46:A *39:40 6.07611e-06
29 *52:B *39:10 4.1021e-05
30 *52:B *39:12 4.00259e-06
31 *52:B *39:36 9.32114e-05
32 *68:CLK *39:10 0
33 *68:D *39:10 0
34 *15:38 *63:A_N 0.00018212
35 *18:20 *63:A_N 0.000166923
36 *20:8 *39:10 2.78104e-05
37 *20:8 *39:12 9.72057e-06
38 *21:10 *39:22 3.91643e-05
39 *21:10 *39:40 0.000167452
40 *21:24 *39:40 6.02277e-06
41 *22:8 *39:40 0.000363322
42 *30:8 *39:40 9.26005e-05
*RES
1 *76:X *39:10 31.41 
2 *39:10 *39:12 0.497143 
3 *39:12 *39:22 33.3764 
4 *39:22 *62:A1 23 
5 *39:12 *51:A 23 
6 *39:10 *39:36 2.54786 
7 *39:36 *39:40 20.7793 
8 *39:40 *46:B 38 
9 *39:40 *63:A_N 44.5457 
10 *39:36 *52:A 23.6214 
*END

*D_NET *40 0.0065708
*CONN
*I *77:A I *D sky130_fd_sc_hd__buf_1
*I *49:A1 I *D sky130_fd_sc_hd__o21ai_1
*I *48:A1 I *D sky130_fd_sc_hd__a21oi_1
*I *56:A1 I *D sky130_fd_sc_hd__a21o_1
*I *57:A I *D sky130_fd_sc_hd__nand3_1
*I *62:A2 I *D sky130_fd_sc_hd__o31ai_1
*I *50:A I *D sky130_fd_sc_hd__xor2_1
*I *67:Q O *D sky130_fd_sc_hd__dfxtp_1
*CAP
1 *77:A 8.26772e-05
2 *49:A1 0
3 *48:A1 0
4 *56:A1 0
5 *57:A 4.4101e-05
6 *62:A2 0.000253805
7 *50:A 0
8 *67:Q 0
9 *40:91 0.000462628
10 *40:32 0.000609721
11 *40:24 0.000655102
12 *40:16 0.00063335
13 *40:10 0.00051
14 *40:8 0.00069898
15 *40:4 0.000187296
16 *57:A *41:45 1.39317e-05
17 *57:A *41:62 1.14876e-05
18 *62:A2 *41:12 0.000254069
19 *62:A2 *41:19 2.67572e-05
20 *40:10 *42:39 0
21 *40:16 *57:C 0
22 *40:16 *78:A 0.000259146
23 *40:16 *41:62 5.50106e-05
24 *40:16 *42:10 6.31731e-05
25 *40:16 *42:39 0
26 *40:24 *57:C 0.000423663
27 *40:24 *41:62 3.58084e-06
28 *40:32 *41:12 3.92407e-05
29 *40:32 *41:45 0
30 counter[0] *40:10 0
31 counter[1] *40:16 0
32 *48:A2 *40:8 0
33 *49:B1 *40:91 0.00048975
34 *52:A *40:32 1.76557e-05
35 *52:B *57:A 9.72057e-06
36 *66:A1 *40:91 0
37 *66:B1 *40:91 0
38 *16:8 *40:91 3.61695e-05
39 *16:21 *40:91 3.50723e-05
40 *19:8 *40:10 5.03449e-05
41 *19:8 *40:91 0.000156346
42 *21:18 *62:A2 0
43 *29:14 *40:10 0
44 *30:16 *62:A2 1.44353e-05
45 *36:10 *40:8 0
46 *36:10 *40:91 2.13733e-05
47 *39:10 *62:A2 0
48 *39:10 *40:32 0.000306497
49 *39:22 *62:A2 4.07902e-05
50 *39:36 *57:A 5.90675e-06
51 *39:36 *40:32 9.90162e-05
*RES
1 *67:Q *40:4 23 
2 *40:4 *40:8 17.0507 
3 *40:8 *40:10 2.96214 
4 *40:10 *40:16 24.2593 
5 *40:16 *40:24 37.2914 
6 *40:24 *40:32 24.6943 
7 *40:32 *50:A 38 
8 *40:32 *62:A2 45.1154 
9 *40:24 *57:A 25.0921 
10 *40:16 *56:A1 23 
11 *40:10 *48:A1 38 
12 *40:8 *40:91 28.2779 
13 *40:91 *49:A1 23 
14 *40:4 *77:A 24.8229 
*END

*D_NET *41 0.00523235
*CONN
*I *78:A I *D sky130_fd_sc_hd__buf_1
*I *56:A2 I *D sky130_fd_sc_hd__a21o_1
*I *57:B I *D sky130_fd_sc_hd__nand3_1
*I *62:A3 I *D sky130_fd_sc_hd__o31ai_1
*I *54:A1 I *D sky130_fd_sc_hd__a21o_1
*I *50:B I *D sky130_fd_sc_hd__xor2_1
*I *68:Q O *D sky130_fd_sc_hd__dfxtp_1
*CAP
1 *78:A 0.000172879
2 *56:A2 1.58152e-05
3 *57:B 0
4 *62:A3 0
5 *54:A1 0
6 *50:B 0
7 *68:Q 0
8 *41:62 0.000398964
9 *41:51 7.55525e-05
10 *41:45 0.000366894
11 *41:33 0.000307549
12 *41:23 0.000366495
13 *41:19 0.000219714
14 *41:12 0.000135182
15 *41:4 0.000214877
16 *56:A2 *42:22 1.5418e-05
17 *78:A *42:10 0
18 *78:A *42:14 4.72549e-05
19 *78:A *42:22 0.000335924
20 *41:51 *57:C 0
21 *41:62 *57:C 7.63648e-05
22 *41:62 *42:22 7.88926e-05
23 *52:A *41:45 5.27215e-06
24 *52:B *41:12 4.04598e-06
25 *52:B *41:19 4.39152e-05
26 *57:A *41:45 1.39317e-05
27 *57:A *41:62 1.14876e-05
28 *58:A *41:62 5.67058e-05
29 *58:B *41:62 0.000184412
30 *59:B *41:62 1.98161e-05
31 *62:A2 *41:12 0.000254069
32 *62:A2 *41:19 2.67572e-05
33 *62:B1 *41:23 3.91386e-05
34 *62:B1 *41:45 0.000137651
35 *62:B1 *41:62 5.3304e-05
36 *63:A_N *41:33 0.000127063
37 *66:B1 *41:33 1.05441e-05
38 *69:D *41:62 0
39 *1:11 *41:33 1.10968e-05
40 *17:10 *41:33 0.000167452
41 *17:32 *41:33 0.000219353
42 *18:20 *41:33 0.000169145
43 *20:8 *41:12 1.73399e-05
44 *21:10 *41:19 1.94693e-05
45 *21:10 *41:33 3.70187e-05
46 *21:18 *41:23 1.24376e-05
47 *21:18 *41:45 8.48502e-06
48 *22:8 *41:51 4.7869e-05
49 *26:8 *41:51 9.26005e-05
50 *30:8 *41:33 9.26005e-05
51 *30:16 *41:19 0
52 *30:16 *41:33 0
53 *39:10 *41:12 0
54 *39:22 *41:12 0
55 *39:22 *41:19 5.50049e-05
56 *39:22 *41:23 0
57 *39:36 *41:45 0
58 *39:40 *41:33 9.16119e-05
59 *39:40 *41:51 1.80023e-05
60 *40:16 *78:A 0.000259146
61 *40:16 *41:62 5.50106e-05
62 *40:24 *41:62 3.58084e-06
63 *40:32 *41:12 3.92407e-05
64 *40:32 *41:45 0
*RES
1 *68:Q *41:4 23 
2 *41:4 *41:12 34.3086 
3 *41:12 *50:B 23 
4 *41:4 *41:19 2.52714 
5 *41:19 *41:23 1.47071 
6 *41:23 *41:33 39.715 
7 *41:33 *54:A1 23 
8 *41:23 *62:A3 23 
9 *41:19 *41:45 2.05071 
10 *41:45 *41:51 31.9057 
11 *41:51 *57:B 23 
12 *41:45 *41:62 6.98071 
13 *41:62 *56:A2 23.4971 
14 *41:62 *78:A 28.8829 
*END

*D_NET *42 0.00482562
*CONN
*I *79:A I *D sky130_fd_sc_hd__buf_1
*I *56:B1 I *D sky130_fd_sc_hd__a21o_1
*I *60:A1 I *D sky130_fd_sc_hd__a21oi_1
*I *63:B I *D sky130_fd_sc_hd__nand2b_1
*I *57:C I *D sky130_fd_sc_hd__nand3_1
*I *69:Q O *D sky130_fd_sc_hd__dfxtp_1
*CAP
1 *79:A 0
2 *56:B1 0
3 *60:A1 0.000104037
4 *63:B 0
5 *57:C 0.000194636
6 *69:Q 0.000148421
7 *42:49 0.000367914
8 *42:39 0.000747227
9 *42:24 0.000469912
10 *42:22 0.000220783
11 *42:14 0.000241283
12 *42:10 0.000168921
13 counter[1] *42:10 0
14 *46:A *42:49 1.83564e-05
15 *48:B1 *60:A1 0.000111596
16 *56:A2 *42:22 1.5418e-05
17 *58:B *42:22 0
18 *64:A3 *42:49 3.97736e-06
19 *65:D *42:49 5.3304e-05
20 *69:CLK *42:49 0
21 *69:D *60:A1 4.47605e-07
22 *69:D *42:22 0
23 *69:D *42:49 0
24 *72:A *42:49 2.87911e-05
25 *78:A *42:10 0
26 *78:A *42:14 4.72549e-05
27 *78:A *42:22 0.000335924
28 *15:38 *42:49 0.000164013
29 *16:21 *42:49 0
30 *17:16 *60:A1 6.64207e-05
31 *17:16 *42:49 0.000206646
32 *21:24 *42:39 0
33 *26:8 *57:C 0
34 *28:8 *42:39 0
35 *29:14 *42:39 0.000210717
36 *30:39 *42:49 6.663e-05
37 *37:41 *42:49 0.000190895
38 *40:10 *42:39 0
39 *40:16 *57:C 0
40 *40:16 *42:10 6.31731e-05
41 *40:16 *42:39 0
42 *40:24 *57:C 0.000423663
43 *41:51 *57:C 0
44 *41:62 *57:C 7.63648e-05
45 *41:62 *42:22 7.88926e-05
*RES
1 *69:Q *42:10 41.3557 
2 *42:10 *42:14 15.6629 
3 *42:14 *42:22 6.48357 
4 *42:22 *42:24 15 
5 *42:24 *57:C 44.2143 
6 *42:24 *42:39 20.4271 
7 *42:39 *42:49 38.8761 
8 *42:49 *63:B 23 
9 *42:39 *60:A1 26.1693 
10 *42:22 *56:B1 23 
11 *42:14 *79:A 23 
*END

*D_NET *43 0.00372758
*CONN
*I *80:A I *D sky130_fd_sc_hd__buf_1
*I *64:B1 I *D sky130_fd_sc_hd__a31o_1
*I *65:B I *D sky130_fd_sc_hd__nand4_1
*I *70:Q O *D sky130_fd_sc_hd__dfxtp_1
*CAP
1 *80:A 0.00046022
2 *64:B1 7.76771e-05
3 *65:B 0
4 *70:Q 0
5 *43:24 0.000611659
6 *43:8 0.000864144
7 *43:6 0.000635028
8 *54:B1 *43:24 1.03876e-05
9 *64:A1 *64:B1 5.67058e-05
10 *64:A3 *64:B1 8.1796e-05
11 *66:A3 *43:24 1.59094e-05
12 *66:B1 *43:8 7.73906e-05
13 *14:8 *80:A 0
14 *16:21 *43:24 2.92911e-06
15 *17:32 *43:8 1.74874e-06
16 *17:32 *43:24 1.46299e-05
17 *18:8 *64:B1 0.000269775
18 *18:20 *43:24 0
19 *30:16 *43:24 0
20 *30:39 *43:24 0.000350203
21 *33:8 *43:24 9.75702e-05
22 *37:35 *64:B1 0
23 *37:41 *43:24 9.98109e-05
*RES
1 *70:Q *43:6 38 
2 *43:6 *43:8 3.66643 
3 *43:8 *43:24 35.6847 
4 *43:24 *65:B 23 
5 *43:8 *64:B1 41.0036 
6 *43:6 *80:A 47.5493 
*END
