*SPEF "ieee 1481-1999"
*DESIGN "counter_dut"
*DATE "11:27:56 Wednesday December 04, 2024"
*VENDOR "The OpenROAD Project"
*PROGRAM "OpenROAD"
*VERSION "edf00dff99f6c40d67a30c0e22a8191c5d2ed9d6"
*DESIGN_FLOW "NAME_SCOPE LOCAL" "PIN_CAP NONE"
*DIVIDER /
*DELIMITER :
*BUS_DELIMITER []
*T_UNIT 1 NS
*C_UNIT 1 PF
*R_UNIT 1 OHM
*L_UNIT 1 HENRY

*NAME_MAP
*3 clk
*4 counter[0]
*5 counter[1]
*6 counter[2]
*7 counter[3]
*8 enable
*9 reset
*10 up_down
*11 _00_
*12 _01_
*13 _02_
*14 _03_
*15 _04_
*16 _05_
*17 _06_
*18 _07_
*19 _08_
*20 _09_
*21 _10_
*22 _11_
*23 _12_
*24 _13_
*25 _14_
*26 _15_
*27 _16_
*28 _17_
*29 _18_
*30 _19_
*31 _20_
*32 _21_
*33 _22_
*34 clknet_0_clk
*35 clknet_1_0__leaf_clk
*36 clknet_1_1__leaf_clk
*37 net1
*38 net10
*39 net11
*40 net2
*41 net3
*42 net4
*43 net5
*44 net6
*45 net7
*46 net8
*47 net9
*48 FILLER_0_15
*49 FILLER_0_21
*50 FILLER_0_25
*51 FILLER_0_29
*52 FILLER_0_3
*53 FILLER_1_13
*54 FILLER_1_3
*55 FILLER_1_34
*56 FILLER_1_46
*57 FILLER_2_22
*58 FILLER_2_6
*59 FILLER_3_18
*60 FILLER_3_3
*61 FILLER_4_23
*62 FILLER_5_3
*63 FILLER_6_27
*64 FILLER_7_10
*65 FILLER_7_16
*66 FILLER_7_20
*67 PHY_EDGE_ROW_0_Left_8
*68 PHY_EDGE_ROW_0_Right_0
*69 PHY_EDGE_ROW_1_Left_9
*70 PHY_EDGE_ROW_1_Right_1
*71 PHY_EDGE_ROW_2_Left_10
*72 PHY_EDGE_ROW_2_Right_2
*73 PHY_EDGE_ROW_3_Left_11
*74 PHY_EDGE_ROW_3_Right_3
*75 PHY_EDGE_ROW_4_Left_12
*76 PHY_EDGE_ROW_4_Right_4
*77 PHY_EDGE_ROW_5_Left_13
*78 PHY_EDGE_ROW_5_Right_5
*79 PHY_EDGE_ROW_6_Left_14
*80 PHY_EDGE_ROW_6_Right_6
*81 PHY_EDGE_ROW_7_Left_15
*82 PHY_EDGE_ROW_7_Right_7
*83 TAP_TAPCELL_ROW_0_16
*84 TAP_TAPCELL_ROW_2_17
*85 TAP_TAPCELL_ROW_4_18
*86 TAP_TAPCELL_ROW_6_19
*87 TAP_TAPCELL_ROW_7_20
*88 _23_
*89 _24_
*90 _25_
*91 _26_
*92 _27_
*93 _28_
*94 _29_
*95 _30_
*96 _31_
*97 _32_
*98 _33_
*99 _34_
*100 _35_
*101 _36_
*102 _37_
*103 _38_
*104 _39_
*105 _40_
*106 _41_
*107 _42_
*108 _43_
*109 _44_
*110 _45_
*111 _46_
*112 _47_
*113 _48_
*114 _49_
*115 clkbuf_0_clk
*116 clkbuf_1_0__f_clk
*117 clkbuf_1_1__f_clk
*118 hold1
*119 hold2
*120 hold3
*121 hold4
*122 input1
*123 input2
*124 input3
*125 output4
*126 output5
*127 output6
*128 output7

*PORTS
clk I
counter[0] O
counter[1] O
counter[2] O
counter[3] O
enable I
reset I
up_down I

*D_NET *3 0.00263691
*CONN
*P clk I
*I *115:A I *D sky130_fd_sc_hd__clkbuf_16
*CAP
1 clk 0.00119174
2 *115:A 0.00119174
3 *115:A *102:A 0
4 *115:A *116:A 0.000115197
5 *115:A *122:A 3.14094e-05
6 *115:A *123:A 0
7 *115:A *124:A 2.85068e-05
8 *115:A *18:12 6.49671e-05
9 *115:A *42:14 8.53113e-06
10 *115:A *42:29 4.81484e-06
*RES
1 clk *115:A 7.6367 
*END

*D_NET *4 0.00166304
*CONN
*P counter[0] O
*I *125:X O *D sky130_fd_sc_hd__buf_2
*CAP
1 counter[0] 0.000656043
2 *125:X 0.000656043
3 counter[0] counter[1] 0.000306007
4 counter[0] counter[2] 0
5 counter[0] *113:CLK 0
6 counter[0] *44:14 4.49498e-05
*RES
1 *125:X counter[0] 13.7435 
*END

*D_NET *5 0.00129405
*CONN
*P counter[1] O
*I *126:X O *D sky130_fd_sc_hd__buf_2
*CAP
1 counter[1] 0.000452841
2 *126:X 0.000452841
3 counter[1] counter[2] 8.23602e-05
4 counter[1] *43:14 0
5 counter[0] counter[1] 0.000306007
*RES
1 *126:X counter[1] 10.3968 
*END

*D_NET *6 0.00125902
*CONN
*P counter[2] O
*I *127:X O *D sky130_fd_sc_hd__buf_2
*CAP
1 counter[2] 0.000476939
2 *127:X 0.000476939
3 counter[2] *104:A1 0
4 counter[2] *125:A 0.000108579
5 counter[2] *44:14 0.000114201
6 counter[0] counter[2] 0
7 counter[1] counter[2] 8.23602e-05
*RES
1 *127:X counter[2] 8.87657 
*END

*D_NET *7 0.000673199
*CONN
*P counter[3] O
*I *128:X O *D sky130_fd_sc_hd__buf_2
*CAP
1 counter[3] 0.000311703
2 *128:X 0.000311703
3 counter[3] *123:A 3.14094e-05
4 counter[3] *128:A 1.83847e-05
*RES
1 *128:X counter[3] 7.1793 
*END

*D_NET *8 0.000566147
*CONN
*P enable I
*I *122:A I *D sky130_fd_sc_hd__buf_1
*CAP
1 enable 0.000256124
2 *122:A 0.000256124
3 *122:A *99:A2 0
4 *122:A *123:A 2.24901e-05
5 *115:A *122:A 3.14094e-05
*RES
1 enable *122:A 7.0893 
*END

*D_NET *9 0.000968388
*CONN
*P reset I
*I *123:A I *D sky130_fd_sc_hd__buf_1
*CAP
1 reset 0.000457244
2 *123:A 0.000457244
3 *123:A *128:A 0
4 counter[3] *123:A 3.14094e-05
5 *115:A *123:A 0
6 *122:A *123:A 2.24901e-05
*RES
1 reset *123:A 7.88483 
*END

*D_NET *10 0.00057285
*CONN
*P up_down I
*I *124:A I *D sky130_fd_sc_hd__buf_1
*CAP
1 up_down 0.000272172
2 *124:A 0.000272172
3 *115:A *124:A 2.85068e-05
*RES
1 up_down *124:A 7.0893 
*END

*D_NET *11 0.00247953
*CONN
*I *111:D I *D sky130_fd_sc_hd__dfxtp_1
*I *93:Y O *D sky130_fd_sc_hd__o21ai_1
*CAP
1 *111:D 0.000684289
2 *93:Y 0.000684289
3 *111:D *93:A2 7.00889e-06
4 *111:D *98:A1 0.000197264
5 *111:D *105:A1 6.26945e-05
6 *111:D *111:CLK 0.000439821
7 *111:D *113:CLK 9.84957e-05
8 *111:D *17:21 1.19928e-05
9 *111:D *35:8 1.1392e-05
10 *111:D *42:6 5.72967e-05
11 *111:D *43:14 0.000224981
*RES
1 *93:Y *111:D 20.0737 
*END

*D_NET *12 0.000682705
*CONN
*I *112:D I *D sky130_fd_sc_hd__dfxtp_1
*I *99:X O *D sky130_fd_sc_hd__a31o_1
*CAP
1 *112:D 0.000239617
2 *99:X 0.000239617
3 *112:D *91:A 0
4 *112:D *114:CLK 0.000108031
5 *112:D *121:A 9.54399e-05
*RES
1 *99:X *112:D 11.0737 
*END

*D_NET *13 0.000751758
*CONN
*I *113:D I *D sky130_fd_sc_hd__dfxtp_1
*I *105:Y O *D sky130_fd_sc_hd__o21ai_1
*CAP
1 *113:D 0.000164205
2 *105:Y 0.000164205
3 *113:D *104:A1 0.000183416
4 *113:D *104:A2 5.97937e-05
5 *113:D *104:B1 2.16917e-05
6 *113:D *113:CLK 0.000110161
7 *113:D *44:41 4.82863e-05
*RES
1 *105:Y *113:D 6.75875 
*END

*D_NET *14 0.00161502
*CONN
*I *121:A I *D sky130_fd_sc_hd__dlygate4sd3_1
*I *110:X O *D sky130_fd_sc_hd__a31o_1
*CAP
1 *121:A 0.000391683
2 *110:X 0.000391683
3 *121:A *88:A 0.000293726
4 *121:A *91:A 0
5 *121:A *93:B1 8.23457e-05
6 *121:A *99:A3 1.07797e-05
7 *121:A *108:B1 0.000122403
8 *121:A *109:D 0
9 *121:A *16:12 0.000226961
10 *112:D *121:A 9.54399e-05
*RES
1 *110:X *121:A 14.175 
*END

*D_NET *15 0.00378242
*CONN
*I *90:A I *D sky130_fd_sc_hd__nor2_1
*I *99:A2 I *D sky130_fd_sc_hd__a31o_1
*I *110:A1 I *D sky130_fd_sc_hd__a31o_1
*I *89:B I *D sky130_fd_sc_hd__nand2_1
*I *88:Y O *D sky130_fd_sc_hd__inv_2
*CAP
1 *90:A 0
2 *99:A2 0.000458341
3 *110:A1 7.18539e-05
4 *89:B 0
5 *88:Y 0.000359495
6 *15:20 7.18539e-05
7 *15:18 0.00059496
8 *15:14 0.000496114
9 *99:A2 *108:B1 0.000121643
10 *99:A2 *109:A 0.000106061
11 *99:A2 *109:B 0.00012657
12 *99:A2 *109:C 0
13 *99:A2 *110:A3 0
14 *99:A2 *110:B1 0
15 *99:A2 *37:32 9.05959e-05
16 *99:A2 *45:12 2.82735e-05
17 *110:A1 *89:A 5.4155e-06
18 *110:A1 *16:12 0.000164874
19 *110:A1 *37:6 3.45679e-05
20 *110:A1 *37:15 4.92935e-05
21 *15:14 *90:B 0.000103274
22 *15:14 *97:A 5.53249e-06
23 *15:14 *97:B 7.21296e-06
24 *15:14 *99:A3 0
25 *15:14 *102:A 5.53249e-06
26 *15:14 *102:B 0
27 *15:14 *106:A2 2.91343e-05
28 *15:14 *106:A3 0.000237243
29 *15:14 *107:A_N 0.000269082
30 *15:14 *107:B 0.000162174
31 *15:14 *17:6 1.47256e-05
32 *15:14 *17:21 5.03489e-05
33 *15:14 *21:10 8.7019e-05
34 *15:14 *43:60 2.25161e-05
35 *15:18 *110:B1 0
36 *15:18 *41:29 8.7152e-06
37 *122:A *99:A2 0
*RES
1 *88:Y *15:14 14.48 
2 *15:14 *15:18 3.89 
3 *15:18 *15:20 2 
4 *15:20 *89:B 1.6 
5 *15:20 *110:A1 3.79 
6 *15:18 *99:A2 11.895 
7 *15:14 *90:A 1.6 
*END

*D_NET *16 0.00237158
*CONN
*I *105:A1 I *D sky130_fd_sc_hd__o21ai_1
*I *93:A2 I *D sky130_fd_sc_hd__o21ai_1
*I *89:Y O *D sky130_fd_sc_hd__nand2_1
*CAP
1 *105:A1 9.12377e-05
2 *93:A2 1.68045e-05
3 *89:Y 0.000294039
4 *16:12 0.000402081
5 *93:A2 *17:21 4.82863e-05
6 *105:A1 *88:A 2.13396e-05
7 *105:A1 *99:A3 0.000203491
8 *105:A1 *104:B1 0.000158992
9 *105:A1 *105:A2 9.50342e-06
10 *105:A1 *17:21 0.000118081
11 *16:12 *93:A1 2.04793e-05
12 *16:12 *93:B1 0.000197389
13 *16:12 *99:B1 0.000160651
14 *16:12 *108:A1 8.73389e-06
15 *16:12 *108:A2 2.03356e-05
16 *16:12 *108:A3 2.49909e-05
17 *16:12 *108:B1 7.73574e-06
18 *16:12 *110:A2 9.66021e-05
19 *16:12 *37:15 9.27255e-06
20 *110:A1 *16:12 0.000164874
21 *111:D *93:A2 7.00889e-06
22 *111:D *105:A1 6.26945e-05
23 *121:A *16:12 0.000226961
*RES
1 *89:Y *16:12 12.935 
2 *16:12 *93:A2 2.05 
3 *16:12 *105:A1 9.14 
*END

*D_NET *17 0.00296547
*CONN
*I *98:B1 I *D sky130_fd_sc_hd__a21o_1
*I *92:B1 I *D sky130_fd_sc_hd__a21oi_1
*I *104:B1 I *D sky130_fd_sc_hd__a21oi_1
*I *110:B1 I *D sky130_fd_sc_hd__a31o_1
*I *90:Y O *D sky130_fd_sc_hd__nor2_1
*CAP
1 *98:B1 0
2 *92:B1 8.93605e-05
3 *104:B1 0.000112467
4 *110:B1 0.000111969
5 *90:Y 0.000103998
6 *17:23 0.000201827
7 *17:21 0.000242899
8 *17:6 0.000458866
9 *92:B1 *88:A 0.000136459
10 *92:B1 *99:A3 6.65807e-05
11 *92:B1 *108:B1 2.75145e-05
12 *104:B1 *88:A 0.000158612
13 *104:B1 *104:A2 4.99619e-05
14 *104:B1 *105:B1 5.57182e-05
15 *104:B1 *42:82 7.98805e-05
16 *104:B1 *44:41 9.69133e-05
17 *110:B1 *93:A1 0
18 *110:B1 *109:C 0
19 *110:B1 *30:10 0
20 *17:6 *90:B 2.09303e-05
21 *17:6 *107:A_N 7.35813e-05
22 *17:21 *98:A1 4.87465e-06
23 *17:21 *99:B1 0.000119756
24 *17:21 *107:A_N 6.52265e-05
25 *17:21 *107:B 9.9081e-05
26 *17:21 *30:10 0.000164874
27 *93:A2 *17:21 4.82863e-05
28 *99:A2 *110:B1 0
29 *105:A1 *104:B1 0.000158992
30 *105:A1 *17:21 0.000118081
31 *111:D *17:21 1.19928e-05
32 *113:D *104:B1 2.16917e-05
33 *15:14 *17:6 1.47256e-05
34 *15:14 *17:21 5.03489e-05
35 *15:18 *110:B1 0
*RES
1 *90:Y *17:6 3.43 
2 *17:6 *110:B1 7.235 
3 *17:6 *17:21 5.64 
4 *17:21 *17:23 2 
5 *17:23 *104:B1 7.695 
6 *17:23 *92:B1 5.685 
7 *17:21 *98:B1 1.6 
*END

*D_NET *18 0.00302764
*CONN
*I *92:A2 I *D sky130_fd_sc_hd__a21oi_1
*I *98:A2 I *D sky130_fd_sc_hd__a21o_1
*I *104:A2 I *D sky130_fd_sc_hd__a21oi_1
*I *91:Y O *D sky130_fd_sc_hd__nor2_1
*CAP
1 *92:A2 0
2 *98:A2 2.87464e-05
3 *104:A2 0.000208256
4 *91:Y 0.000408859
5 *18:12 0.000284713
6 *18:10 0.00045657
7 *98:A2 *42:29 3.63701e-06
8 *104:A2 *88:A 0.000176176
9 *104:A2 *105:B1 4.82919e-05
10 *104:A2 *42:29 0
11 *104:A2 *42:31 6.57653e-06
12 *104:A2 *42:82 4.35348e-05
13 *18:10 *88:A 0.000688103
14 *18:10 *117:A 9.79303e-05
15 *18:10 *36:12 6.36578e-05
16 *18:10 *40:8 1.16578e-05
17 *18:10 *42:14 0.000143266
18 *18:12 *88:A 0.000152017
19 *18:12 *42:14 3.09233e-05
20 *104:B1 *104:A2 4.99619e-05
21 *113:D *104:A2 5.97937e-05
22 *115:A *18:12 6.49671e-05
*RES
1 *91:Y *18:10 12.87 
2 *18:10 *18:12 1.89 
3 *18:12 *104:A2 8.145 
4 *18:12 *98:A2 4.1775 
5 *18:10 *92:A2 3.6 
*END

*D_NET *19 0.000799016
*CONN
*I *93:B1 I *D sky130_fd_sc_hd__o21ai_1
*I *92:Y O *D sky130_fd_sc_hd__a21oi_1
*CAP
1 *93:B1 0.000107943
2 *92:Y 0.000107943
3 *93:B1 *99:A3 0.000219369
4 *93:B1 *107:B 0
5 *93:B1 *108:B1 8.40269e-05
6 *121:A *93:B1 8.23457e-05
7 *16:12 *93:B1 0.000197389
*RES
1 *92:Y *93:B1 10.65 
*END

*D_NET *20 0.000504042
*CONN
*I *95:B I *D sky130_fd_sc_hd__or2_1
*I *96:B I *D sky130_fd_sc_hd__nand2_1
*I *94:X O *D sky130_fd_sc_hd__xor2_1
*CAP
1 *95:B 1.36534e-05
2 *96:B 0
3 *94:X 0.000111775
4 *20:10 0.000125429
5 *95:B *95:A 4.66108e-05
6 *95:B *106:A2 4.66108e-05
7 *20:10 *102:A 0
8 *20:10 *102:B 0.000159964
9 *20:10 *41:12 0
*RES
1 *94:X *20:10 7.745 
2 *20:10 *96:B 1.6 
3 *20:10 *95:B 2.05 
*END

*D_NET *21 0.00164035
*CONN
*I *103:A I *D sky130_fd_sc_hd__xnor2_1
*I *97:A I *D sky130_fd_sc_hd__nand2_1
*I *95:X O *D sky130_fd_sc_hd__or2_1
*CAP
1 *103:A 2.76856e-05
2 *97:A 0.000211507
3 *95:X 0.000123281
4 *21:10 0.000362474
5 *97:A *97:B 0.000178034
6 *97:A *102:A 0
7 *103:A *88:A 8.23457e-05
8 *103:A *94:A 1.19928e-05
9 *103:A *103:B 4.66108e-05
10 *21:10 *97:B 0.000333244
11 *21:10 *106:A2 4.82919e-05
12 *21:10 *42:82 0.000122331
13 *15:14 *97:A 5.53249e-06
14 *15:14 *21:10 8.7019e-05
*RES
1 *95:X *21:10 7.23 
2 *21:10 *97:A 7.245 
3 *21:10 *103:A 4.395 
*END

*D_NET *22 0.00190696
*CONN
*I *97:B I *D sky130_fd_sc_hd__nand2_1
*I *96:Y O *D sky130_fd_sc_hd__nand2_1
*CAP
1 *97:B 0.000315797
2 *96:Y 0.000315797
3 *97:B *99:A3 0.000324737
4 *97:B *106:A2 0.00018087
5 *97:B *26:8 0.000232111
6 *97:B *42:82 1.91597e-05
7 *97:A *97:B 0.000178034
8 *15:14 *97:B 7.21296e-06
9 *21:10 *97:B 0.000333244
*RES
1 *96:Y *97:B 15.795 
*END

*D_NET *23 0.00199417
*CONN
*I *99:A3 I *D sky130_fd_sc_hd__a31o_1
*I *97:Y O *D sky130_fd_sc_hd__nand2_1
*CAP
1 *99:A3 0.000407179
2 *97:Y 0.000407179
3 *99:A3 *88:A 1.52776e-05
4 *99:A3 *99:B1 4.0288e-05
5 *99:A3 *105:A2 5.2124e-05
6 *99:A3 *107:B 0
7 *99:A3 *108:B1 0.000176159
8 *99:A3 *43:45 7.10077e-05
9 *92:B1 *99:A3 6.65807e-05
10 *93:B1 *99:A3 0.000219369
11 *97:B *99:A3 0.000324737
12 *105:A1 *99:A3 0.000203491
13 *121:A *99:A3 1.07797e-05
14 *15:14 *99:A3 0
*RES
1 *97:Y *99:A3 17.19 
*END

*D_NET *24 0.00109627
*CONN
*I *99:B1 I *D sky130_fd_sc_hd__a31o_1
*I *98:X O *D sky130_fd_sc_hd__a21o_1
*CAP
1 *99:B1 0.000250669
2 *98:X 0.000250669
3 *99:B1 *93:A1 0.00024283
4 *99:B1 *37:21 3.14025e-05
5 *99:A3 *99:B1 4.0288e-05
6 *16:12 *99:B1 0.000160651
7 *17:21 *99:B1 0.000119756
*RES
1 *98:X *99:B1 12.315 
*END

*D_NET *25 0.000883033
*CONN
*I *102:A I *D sky130_fd_sc_hd__nand2_1
*I *100:X O *D sky130_fd_sc_hd__a21o_1
*CAP
1 *102:A 0.000435672
2 *100:X 0.000435672
3 *102:A *42:35 6.15576e-06
4 *97:A *102:A 0
5 *115:A *102:A 0
6 *15:14 *102:A 5.53249e-06
7 *20:10 *102:A 0
*RES
1 *100:X *102:A 9.59893 
*END

*D_NET *26 0.00151582
*CONN
*I *106:B1 I *D sky130_fd_sc_hd__o31ai_1
*I *102:B I *D sky130_fd_sc_hd__nand2_1
*I *101:Y O *D sky130_fd_sc_hd__nand3_1
*CAP
1 *106:B1 0.000110388
2 *102:B 0.000169177
3 *101:Y 0.000164351
4 *26:8 0.000443917
5 *102:B *94:A 5.30673e-05
6 *102:B *94:B 8.65961e-05
7 *102:B *106:A2 1.88358e-05
8 *102:B *106:A3 1.80324e-05
9 *102:B *41:12 0
10 *102:B *43:60 3.68682e-05
11 *106:B1 *106:A2 2.25075e-05
12 *106:B1 *107:B 0
13 *106:B1 *41:29 0
14 *97:B *26:8 0.000232111
15 *15:14 *102:B 0
16 *20:10 *102:B 0.000159964
*RES
1 *101:Y *26:8 5.775 
2 *26:8 *102:B 7.605 
3 *26:8 *106:B1 5.235 
*END

*D_NET *27 0.000441862
*CONN
*I *103:B I *D sky130_fd_sc_hd__xnor2_1
*I *102:Y O *D sky130_fd_sc_hd__nand2_1
*CAP
1 *103:B 5.39879e-05
2 *102:Y 5.39879e-05
3 *103:B *88:A 6.77417e-05
4 *103:B *94:A 0.000189265
5 *103:B *94:B 7.00889e-06
6 *103:B *43:45 2.32597e-05
7 *103:A *103:B 4.66108e-05
*RES
1 *102:Y *103:B 5.375 
*END

*D_NET *28 0.000454417
*CONN
*I *105:A2 I *D sky130_fd_sc_hd__o21ai_1
*I *103:Y O *D sky130_fd_sc_hd__xnor2_1
*CAP
1 *105:A2 0.000101812
2 *103:Y 0.000101812
3 *105:A2 *88:A 0.000164452
4 *105:A2 *43:45 2.47143e-05
5 *99:A3 *105:A2 5.2124e-05
6 *105:A1 *105:A2 9.50342e-06
*RES
1 *103:Y *105:A2 9.375 
*END

*D_NET *29 0.000254822
*CONN
*I *105:B1 I *D sky130_fd_sc_hd__o21ai_1
*I *104:Y O *D sky130_fd_sc_hd__a21oi_1
*CAP
1 *105:B1 3.33928e-05
2 *104:Y 3.33928e-05
3 *105:B1 *42:82 8.40269e-05
4 *104:A2 *105:B1 4.82919e-05
5 *104:B1 *105:B1 5.57182e-05
*RES
1 *104:Y *105:B1 4.355 
*END

*D_NET *30 0.00141826
*CONN
*I *109:C I *D sky130_fd_sc_hd__nand4_1
*I *108:A2 I *D sky130_fd_sc_hd__a31o_1
*I *106:Y O *D sky130_fd_sc_hd__o31ai_1
*CAP
1 *109:C 0.000114639
2 *108:A2 5.36418e-05
3 *106:Y 0.000157871
4 *30:10 0.000326152
5 *108:A2 *108:A1 7.92997e-05
6 *108:A2 *108:A3 4.66108e-05
7 *108:A2 *110:A2 1.48813e-05
8 *108:A2 *37:15 8.23457e-05
9 *109:C *109:D 0.000192876
10 *109:C *110:A3 4.40812e-05
11 *109:C *31:8 2.92496e-05
12 *30:10 *31:8 9.14049e-05
13 *99:A2 *109:C 0
14 *110:B1 *109:C 0
15 *110:B1 *30:10 0
16 *16:12 *108:A2 2.03356e-05
17 *17:21 *30:10 0.000164874
*RES
1 *106:Y *30:10 6.21 
2 *30:10 *108:A2 5.1 
3 *30:10 *109:C 6.255 
*END

*D_NET *31 0.000910293
*CONN
*I *109:D I *D sky130_fd_sc_hd__nand4_1
*I *108:A3 I *D sky130_fd_sc_hd__a31o_1
*I *107:Y O *D sky130_fd_sc_hd__nand2b_1
*CAP
1 *109:D 6.6313e-05
2 *108:A3 1.65033e-05
3 *107:Y 4.60722e-05
4 *31:8 0.000128889
5 *109:D *91:A 4.18603e-06
6 *109:D *37:21 0.000179015
7 *31:8 *93:A1 3.42142e-05
8 *31:8 *37:21 4.9968e-05
9 *108:A2 *108:A3 4.66108e-05
10 *109:C *109:D 0.000192876
11 *109:C *31:8 2.92496e-05
12 *121:A *109:D 0
13 *16:12 *108:A3 2.49909e-05
14 *30:10 *31:8 9.14049e-05
*RES
1 *107:Y *31:8 4.98 
2 *31:8 *108:A3 4.05 
3 *31:8 *109:D 6 
*END

*D_NET *32 0.000304373
*CONN
*I *110:A2 I *D sky130_fd_sc_hd__a31o_1
*I *108:X O *D sky130_fd_sc_hd__a31o_1
*CAP
1 *110:A2 5.10591e-05
2 *108:X 5.10591e-05
3 *110:A2 *108:B1 0
4 *110:A2 *37:15 9.07709e-05
5 *108:A2 *110:A2 1.48813e-05
6 *16:12 *110:A2 9.66021e-05
*RES
1 *108:X *110:A2 5.045 
*END

*D_NET *33 0.000303096
*CONN
*I *110:A3 I *D sky130_fd_sc_hd__a31o_1
*I *109:Y O *D sky130_fd_sc_hd__nand4_1
*CAP
1 *110:A3 0.000105361
2 *109:Y 0.000105361
3 *110:A3 *108:B1 4.82919e-05
4 *99:A2 *110:A3 0
5 *109:C *110:A3 4.40812e-05
*RES
1 *109:Y *110:A3 9.03 
*END

*D_NET *34 0.00227237
*CONN
*I *117:A I *D sky130_fd_sc_hd__clkbuf_16
*I *116:A I *D sky130_fd_sc_hd__clkbuf_16
*I *115:X O *D sky130_fd_sc_hd__clkbuf_16
*CAP
1 *117:A 0.000307309
2 *116:A 0.000108267
3 *115:X 0.000441273
4 *34:8 0.000856849
5 *116:A *98:A1 3.00381e-05
6 *116:A *42:14 5.29707e-05
7 *116:A *42:29 9.28053e-05
8 *116:A *43:14 0
9 *117:A *88:A 0
10 *117:A *36:12 0.000132496
11 *117:A *42:14 3.31204e-05
12 *117:A *43:14 0
13 *34:8 *42:29 4.11678e-06
14 *115:A *116:A 0.000115197
15 *18:10 *117:A 9.79303e-05
*RES
1 *115:X *34:8 8.19 
2 *34:8 *116:A 6.45 
3 *34:8 *117:A 9.765 
*END

*D_NET *35 0.00240104
*CONN
*I *111:CLK I *D sky130_fd_sc_hd__dfxtp_1
*I *113:CLK I *D sky130_fd_sc_hd__dfxtp_1
*I *116:X O *D sky130_fd_sc_hd__clkbuf_16
*CAP
1 *111:CLK 0.000240905
2 *113:CLK 0.000248341
3 *116:X 0.000138291
4 *35:8 0.000627537
5 *111:CLK *42:6 3.14307e-05
6 *111:CLK *43:14 0.000328014
7 *113:CLK *104:A1 4.95653e-05
8 *113:CLK *43:14 7.70828e-05
9 counter[0] *113:CLK 0
10 *111:D *111:CLK 0.000439821
11 *111:D *113:CLK 9.84957e-05
12 *111:D *35:8 1.1392e-05
13 *113:D *113:CLK 0.000110161
*RES
1 *116:X *35:8 5.085 
2 *35:8 *113:CLK 8.685 
3 *35:8 *111:CLK 10.065 
*END

*D_NET *36 0.00181284
*CONN
*I *112:CLK I *D sky130_fd_sc_hd__dfxtp_1
*I *114:CLK I *D sky130_fd_sc_hd__dfxtp_1
*I *117:X O *D sky130_fd_sc_hd__clkbuf_16
*CAP
1 *112:CLK 0
2 *114:CLK 0.000237232
3 *117:X 0.000502075
4 *36:12 0.000739307
5 *114:CLK *114:D 3.00381e-05
6 *112:D *114:CLK 0.000108031
7 *117:A *36:12 0.000132496
8 *18:10 *36:12 6.36578e-05
*RES
1 *117:X *36:12 11.915 
2 *36:12 *114:CLK 5.5 
3 *36:12 *112:CLK 1.6 
*END

*D_NET *37 0.00316535
*CONN
*I *108:A1 I *D sky130_fd_sc_hd__a31o_1
*I *99:A1 I *D sky130_fd_sc_hd__a31o_1
*I *91:A I *D sky130_fd_sc_hd__nor2_1
*I *109:A I *D sky130_fd_sc_hd__nand4_1
*I *89:A I *D sky130_fd_sc_hd__nand2_1
*I *122:X O *D sky130_fd_sc_hd__buf_1
*CAP
1 *108:A1 9.00125e-05
2 *99:A1 0
3 *91:A 0.000293056
4 *109:A 4.63353e-05
5 *89:A 3.36214e-05
6 *122:X 9.5607e-05
7 *37:32 0.000330595
8 *37:21 0.000161684
9 *37:15 0.000433468
10 *37:6 0.000394874
11 *91:A *88:A 4.82863e-05
12 *109:A *108:B1 0.000196364
13 *37:21 *93:A1 0.000178321
14 *37:32 *108:B1 4.21973e-05
15 *99:A2 *109:A 0.000106061
16 *99:A2 *37:32 9.05959e-05
17 *99:B1 *37:21 3.14025e-05
18 *108:A2 *108:A1 7.92997e-05
19 *108:A2 *37:15 8.23457e-05
20 *109:D *91:A 4.18603e-06
21 *109:D *37:21 0.000179015
22 *110:A1 *89:A 5.4155e-06
23 *110:A1 *37:6 3.45679e-05
24 *110:A1 *37:15 4.92935e-05
25 *110:A2 *37:15 9.07709e-05
26 *112:D *91:A 0
27 *121:A *91:A 0
28 *16:12 *108:A1 8.73389e-06
29 *16:12 *37:15 9.27255e-06
30 *31:8 *37:21 4.9968e-05
*RES
1 *122:X *37:6 2.74 
2 *37:6 *89:A 2.215 
3 *37:6 *37:15 3.555 
4 *37:15 *37:21 6.655 
5 *37:21 *109:A 3.43 
6 *37:21 *37:32 1.155 
7 *37:32 *91:A 10.235 
8 *37:32 *99:A1 1.6 
9 *37:15 *108:A1 3.01 
*END

*D_NET *38 0.00028258
*CONN
*I *109:B I *D sky130_fd_sc_hd__nand4_1
*I *120:X O *D sky130_fd_sc_hd__dlygate4sd3_1
*CAP
1 *109:B 7.80048e-05
2 *120:X 7.80048e-05
3 *99:A2 *109:B 0.00012657
*RES
1 *120:X *109:B 4.34 
*END

*D_NET *39 0.000208823
*CONN
*I *114:D I *D sky130_fd_sc_hd__dfxtp_1
*I *121:X O *D sky130_fd_sc_hd__dlygate4sd3_1
*CAP
1 *114:D 8.93927e-05
2 *121:X 8.93927e-05
3 *114:CLK *114:D 3.00381e-05
*RES
1 *121:X *114:D 4.56875 
*END

*D_NET *40 0.00409484
*CONN
*I *88:A I *D sky130_fd_sc_hd__inv_2
*I *91:B I *D sky130_fd_sc_hd__nor2_1
*I *123:X O *D sky130_fd_sc_hd__buf_1
*CAP
1 *88:A 0.000599501
2 *91:B 2.08101e-05
3 *123:X 0.000220969
4 *40:8 0.00084128
5 *88:A *94:A 7.68414e-06
6 *88:A *94:B 5.4155e-06
7 *88:A *108:B1 3.11143e-05
8 *88:A *42:31 0
9 *88:A *43:45 0.000290868
10 *88:A *44:41 6.10014e-05
11 *91:A *88:A 4.82863e-05
12 *92:B1 *88:A 0.000136459
13 *99:A3 *88:A 1.52776e-05
14 *103:A *88:A 8.23457e-05
15 *103:B *88:A 6.77417e-05
16 *104:A2 *88:A 0.000176176
17 *104:B1 *88:A 0.000158612
18 *105:A1 *88:A 2.13396e-05
19 *105:A2 *88:A 0.000164452
20 *117:A *88:A 0
21 *121:A *88:A 0.000293726
22 *18:10 *88:A 0.000688103
23 *18:10 *40:8 1.16578e-05
24 *18:12 *88:A 0.000152017
*RES
1 *123:X *40:8 4.825 
2 *40:8 *91:B 1.96 
3 *40:8 *88:A 23.87 
*END

*D_NET *41 0.00211828
*CONN
*I *95:A I *D sky130_fd_sc_hd__or2_1
*I *96:A I *D sky130_fd_sc_hd__nand2_1
*I *106:A1 I *D sky130_fd_sc_hd__o31ai_1
*I *107:A_N I *D sky130_fd_sc_hd__nand2b_1
*I *90:B I *D sky130_fd_sc_hd__nor2_1
*I *124:X O *D sky130_fd_sc_hd__buf_1
*CAP
1 *95:A 9.91286e-05
2 *96:A 1.77753e-05
3 *106:A1 0
4 *107:A_N 7.04952e-05
5 *90:B 0.00012094
6 *124:X 8.03309e-05
7 *41:47 0.000187608
8 *41:29 0.000164525
9 *41:12 0.000322314
10 *41:8 0.00025838
11 *95:A *106:A2 0.000109357
12 *96:A *106:A2 0
13 *41:12 *106:A2 6.5525e-05
14 *41:29 *106:A2 4.43871e-06
15 *41:47 *106:A2 3.00381e-05
16 *95:B *95:A 4.66108e-05
17 *102:B *41:12 0
18 *106:B1 *41:29 0
19 *15:14 *90:B 0.000103274
20 *15:14 *107:A_N 0.000269082
21 *15:18 *41:29 8.7152e-06
22 *17:6 *90:B 2.09303e-05
23 *17:6 *107:A_N 7.35813e-05
24 *17:21 *107:A_N 6.52265e-05
25 *20:10 *41:12 0
*RES
1 *124:X *41:8 2.755 
2 *41:8 *41:12 3.89 
3 *41:12 *90:B 5.715 
4 *41:12 *41:29 2.87 
5 *41:29 *107:A_N 4.495 
6 *41:29 *106:A1 1.6 
7 *41:8 *41:47 1.14 
8 *41:47 *96:A 1.96 
9 *41:47 *95:A 3.43 
*END

*D_NET *42 0.00850751
*CONN
*I *119:A I *D sky130_fd_sc_hd__dlygate4sd3_1
*I *101:A I *D sky130_fd_sc_hd__nand3_1
*I *106:A2 I *D sky130_fd_sc_hd__o31ai_1
*I *100:A1 I *D sky130_fd_sc_hd__a21o_1
*I *125:A I *D sky130_fd_sc_hd__buf_2
*I *94:A I *D sky130_fd_sc_hd__xor2_1
*I *92:A1 I *D sky130_fd_sc_hd__a21oi_1
*I *111:Q O *D sky130_fd_sc_hd__dfxtp_1
*CAP
1 *119:A 3.58421e-05
2 *101:A 0
3 *106:A2 0.000193951
4 *100:A1 3.41697e-05
5 *125:A 0.000368735
6 *94:A 0.000595783
7 *92:A1 6.46423e-05
8 *111:Q 0.000500561
9 *42:82 0.000519075
10 *42:35 0.00104687
11 *42:31 0.000223088
12 *42:29 0.00070537
13 *42:14 0.000532399
14 *42:6 0.000730478
15 *94:A *94:B 0.000108679
16 *94:A *43:45 0.000161204
17 *100:A1 *44:31 4.77757e-05
18 *106:A2 *101:B 8.40269e-05
19 *125:A *127:A 5.79482e-05
20 *125:A *43:45 8.52883e-05
21 *125:A *44:16 6.90044e-05
22 *125:A *44:31 0.000118017
23 *42:29 *43:14 0
24 *42:29 *43:33 0.000114492
25 *42:31 *43:33 0.000114709
26 *42:31 *44:41 2.97204e-05
27 *42:35 *127:A 0
28 *42:35 *43:33 2.78732e-05
29 *42:35 *43:45 0
30 *42:35 *44:41 1.22762e-05
31 *42:82 *101:B 3.66286e-05
32 *42:82 *107:B 3.63661e-05
33 *42:82 *44:41 0.000101761
34 counter[2] *125:A 0.000108579
35 *88:A *94:A 7.68414e-06
36 *88:A *42:31 0
37 *95:A *106:A2 0.000109357
38 *95:B *106:A2 4.66108e-05
39 *96:A *106:A2 0
40 *97:B *106:A2 0.00018087
41 *97:B *42:82 1.91597e-05
42 *98:A2 *42:29 3.63701e-06
43 *102:A *42:35 6.15576e-06
44 *102:B *94:A 5.30673e-05
45 *102:B *106:A2 1.88358e-05
46 *103:A *94:A 1.19928e-05
47 *103:B *94:A 0.000189265
48 *104:A2 *42:29 0
49 *104:A2 *42:31 6.57653e-06
50 *104:A2 *42:82 4.35348e-05
51 *104:B1 *42:82 7.98805e-05
52 *105:B1 *42:82 8.40269e-05
53 *106:B1 *106:A2 2.25075e-05
54 *111:CLK *42:6 3.14307e-05
55 *111:D *42:6 5.72967e-05
56 *115:A *42:14 8.53113e-06
57 *115:A *42:29 4.81484e-06
58 *116:A *42:14 5.29707e-05
59 *116:A *42:29 9.28053e-05
60 *117:A *42:14 3.31204e-05
61 *15:14 *106:A2 2.91343e-05
62 *18:10 *42:14 0.000143266
63 *18:12 *42:14 3.09233e-05
64 *21:10 *106:A2 4.82919e-05
65 *21:10 *42:82 0.000122331
66 *34:8 *42:29 4.11678e-06
67 *41:12 *106:A2 6.5525e-05
68 *41:29 *106:A2 4.43871e-06
69 *41:47 *106:A2 3.00381e-05
*RES
1 *111:Q *42:6 7.225 
2 *42:6 *42:14 7.375 
3 *42:14 *92:A1 2.395 
4 *42:14 *42:29 6.41 
5 *42:29 *42:31 2.145 
6 *42:31 *42:35 3.125 
7 *42:35 *94:A 11.08 
8 *42:35 *125:A 12.53 
9 *42:31 *100:A1 4.05 
10 *42:29 *42:82 7.565 
11 *42:82 *106:A2 10.9325 
12 *42:82 *101:A 1.6 
13 *42:6 *119:A 2.215 
*END

*D_NET *43 0.00647721
*CONN
*I *126:A I *D sky130_fd_sc_hd__buf_2
*I *100:A2 I *D sky130_fd_sc_hd__a21o_1
*I *106:A3 I *D sky130_fd_sc_hd__o31ai_1
*I *101:B I *D sky130_fd_sc_hd__nand3_1
*I *94:B I *D sky130_fd_sc_hd__xor2_1
*I *98:A1 I *D sky130_fd_sc_hd__a21o_1
*I *112:Q O *D sky130_fd_sc_hd__dfxtp_1
*CAP
1 *126:A 6.44905e-05
2 *100:A2 0
3 *106:A3 0.00024452
4 *101:B 3.95076e-05
5 *94:B 0.000177616
6 *98:A1 9.53311e-05
7 *112:Q 0
8 *43:60 0.000330953
9 *43:45 0.000580282
10 *43:33 0.000599293
11 *43:14 0.00090428
12 *43:4 0.000629887
13 *101:B *107:B 8.49205e-05
14 *106:A3 *107:B 0.000155928
15 *43:45 *100:B1 4.00541e-06
16 *43:45 *44:31 6.35284e-05
17 *43:45 *44:41 5.30673e-05
18 *43:60 *107:B 3.09164e-05
19 counter[1] *43:14 0
20 *88:A *94:B 5.4155e-06
21 *88:A *43:45 0.000290868
22 *94:A *94:B 0.000108679
23 *94:A *43:45 0.000161204
24 *99:A3 *43:45 7.10077e-05
25 *102:B *94:B 8.65961e-05
26 *102:B *106:A3 1.80324e-05
27 *102:B *43:60 3.68682e-05
28 *103:B *94:B 7.00889e-06
29 *103:B *43:45 2.32597e-05
30 *105:A2 *43:45 2.47143e-05
31 *106:A2 *101:B 8.40269e-05
32 *111:CLK *43:14 0.000328014
33 *111:D *98:A1 0.000197264
34 *111:D *43:14 0.000224981
35 *113:CLK *43:14 7.70828e-05
36 *116:A *98:A1 3.00381e-05
37 *116:A *43:14 0
38 *117:A *43:14 0
39 *125:A *43:45 8.52883e-05
40 *15:14 *106:A3 0.000237243
41 *15:14 *43:60 2.25161e-05
42 *17:21 *98:A1 4.87465e-06
43 *42:29 *43:14 0
44 *42:29 *43:33 0.000114492
45 *42:31 *43:33 0.000114709
46 *42:35 *43:33 2.78732e-05
47 *42:35 *43:45 0
48 *42:82 *101:B 3.66286e-05
*RES
1 *112:Q *43:4 1.6 
2 *43:4 *43:14 14.065 
3 *43:14 *98:A1 3.79 
4 *43:14 *43:33 8.485 
5 *43:33 *43:45 11.305 
6 *43:45 *94:B 5.095 
7 *43:45 *43:60 3.125 
8 *43:60 *101:B 4.74 
9 *43:60 *106:A3 7.665 
10 *43:33 *100:A2 1.6 
11 *43:4 *126:A 2.665 
*END

*D_NET *44 0.00374633
*CONN
*I *118:A I *D sky130_fd_sc_hd__dlygate4sd3_1
*I *100:B1 I *D sky130_fd_sc_hd__a21o_1
*I *101:C I *D sky130_fd_sc_hd__nand3_1
*I *107:B I *D sky130_fd_sc_hd__nand2b_1
*I *127:A I *D sky130_fd_sc_hd__buf_2
*I *113:Q O *D sky130_fd_sc_hd__dfxtp_1
*CAP
1 *118:A 0
2 *100:B1 1.90984e-05
3 *101:C 0
4 *107:B 0.000273811
5 *127:A 0.000133838
6 *113:Q 0.000150859
7 *44:41 0.000512047
8 *44:31 0.000483769
9 *44:16 0.000443441
10 *44:14 0.000234026
11 *107:B *93:A1 3.59531e-06
12 counter[0] *44:14 4.49498e-05
13 counter[2] *44:14 0.000114201
14 *88:A *44:41 6.10014e-05
15 *93:B1 *107:B 0
16 *99:A3 *107:B 0
17 *100:A1 *44:31 4.77757e-05
18 *101:B *107:B 8.49205e-05
19 *104:B1 *44:41 9.69133e-05
20 *106:A3 *107:B 0.000155928
21 *106:B1 *107:B 0
22 *113:D *44:41 4.82863e-05
23 *125:A *127:A 5.79482e-05
24 *125:A *44:16 6.90044e-05
25 *125:A *44:31 0.000118017
26 *15:14 *107:B 0.000162174
27 *17:21 *107:B 9.9081e-05
28 *42:31 *44:41 2.97204e-05
29 *42:35 *127:A 0
30 *42:35 *44:41 1.22762e-05
31 *42:82 *107:B 3.63661e-05
32 *42:82 *44:41 0.000101761
33 *43:45 *100:B1 4.00541e-06
34 *43:45 *44:31 6.35284e-05
35 *43:45 *44:41 5.30673e-05
36 *43:60 *107:B 3.09164e-05
*RES
1 *113:Q *44:14 8.225 
2 *44:14 *44:16 1.485 
3 *44:16 *127:A 8 
4 *44:16 *44:31 4.26 
5 *44:31 *44:41 8.695 
6 *44:41 *107:B 11.2625 
7 *44:41 *101:C 1.6 
8 *44:31 *100:B1 1.96 
9 *44:14 *118:A 1.6 
*END

*D_NET *45 0.00293336
*CONN
*I *128:A I *D sky130_fd_sc_hd__buf_2
*I *120:A I *D sky130_fd_sc_hd__dlygate4sd3_1
*I *108:B1 I *D sky130_fd_sc_hd__a31o_1
*I *114:Q O *D sky130_fd_sc_hd__dfxtp_1
*CAP
1 *128:A 0.000251783
2 *120:A 0
3 *108:B1 0.0004917
4 *114:Q 0
5 *45:12 0.000665495
6 *45:6 0.000425578
7 *108:B1 *93:A1 0.000194694
8 counter[3] *128:A 1.83847e-05
9 *88:A *108:B1 3.11143e-05
10 *92:B1 *108:B1 2.75145e-05
11 *93:B1 *108:B1 8.40269e-05
12 *99:A2 *108:B1 0.000121643
13 *99:A2 *45:12 2.82735e-05
14 *99:A3 *108:B1 0.000176159
15 *109:A *108:B1 0.000196364
16 *110:A2 *108:B1 0
17 *110:A3 *108:B1 4.82919e-05
18 *121:A *108:B1 0.000122403
19 *123:A *128:A 0
20 *16:12 *108:B1 7.73574e-06
21 *37:32 *108:B1 4.21973e-05
*RES
1 *114:Q *45:6 3.6 
2 *45:6 *45:12 4.775 
3 *45:12 *108:B1 16.2875 
4 *45:12 *120:A 1.6 
5 *45:6 *128:A 7.65 
*END

*D_NET *46 0.000733099
*CONN
*I *104:A1 I *D sky130_fd_sc_hd__a21oi_1
*I *118:X O *D sky130_fd_sc_hd__dlygate4sd3_1
*CAP
1 *104:A1 0.000250059
2 *118:X 0.000250059
3 counter[2] *104:A1 0
4 *113:CLK *104:A1 4.95653e-05
5 *113:D *104:A1 0.000183416
*RES
1 *118:X *104:A1 10.59 
*END

*D_NET *47 0.0012778
*CONN
*I *93:A1 I *D sky130_fd_sc_hd__o21ai_1
*I *119:X O *D sky130_fd_sc_hd__dlygate4sd3_1
*CAP
1 *93:A1 0.000301833
2 *119:X 0.000301833
3 *99:B1 *93:A1 0.00024283
4 *107:B *93:A1 3.59531e-06
5 *108:B1 *93:A1 0.000194694
6 *110:B1 *93:A1 0
7 *16:12 *93:A1 2.04793e-05
8 *31:8 *93:A1 3.42142e-05
9 *37:21 *93:A1 0.000178321
*RES
1 *119:X *93:A1 12.795 
*END
