*SPEF "ieee 1481-1999"
*DESIGN "counter_dut"
*DATE "11:27:56 Wednesday December 04, 2024"
*VENDOR "The OpenROAD Project"
*PROGRAM "OpenROAD"
*VERSION "edf00dff99f6c40d67a30c0e22a8191c5d2ed9d6"
*DESIGN_FLOW "NAME_SCOPE LOCAL" "PIN_CAP NONE"
*DIVIDER /
*DELIMITER :
*BUS_DELIMITER []
*T_UNIT 1 NS
*C_UNIT 1 PF
*R_UNIT 1 OHM
*L_UNIT 1 HENRY

*NAME_MAP
*3 clk
*4 counter[0]
*5 counter[1]
*6 counter[2]
*7 counter[3]
*8 enable
*9 reset
*10 up_down
*11 _00_
*12 _01_
*13 _02_
*14 _03_
*15 _04_
*16 _05_
*17 _06_
*18 _07_
*19 _08_
*20 _09_
*21 _10_
*22 _11_
*23 _12_
*24 _13_
*25 _14_
*26 _15_
*27 _16_
*28 _17_
*29 _18_
*30 _19_
*31 _20_
*32 _21_
*33 _22_
*34 clknet_0_clk
*35 clknet_1_0__leaf_clk
*36 clknet_1_1__leaf_clk
*37 net1
*38 net10
*39 net11
*40 net2
*41 net3
*42 net4
*43 net5
*44 net6
*45 net7
*46 net8
*47 net9
*48 FILLER_0_15
*49 FILLER_0_21
*50 FILLER_0_25
*51 FILLER_0_29
*52 FILLER_0_3
*53 FILLER_1_13
*54 FILLER_1_3
*55 FILLER_1_34
*56 FILLER_1_46
*57 FILLER_2_22
*58 FILLER_2_6
*59 FILLER_3_18
*60 FILLER_3_3
*61 FILLER_4_23
*62 FILLER_5_3
*63 FILLER_6_27
*64 FILLER_7_10
*65 FILLER_7_16
*66 FILLER_7_20
*67 PHY_EDGE_ROW_0_Left_8
*68 PHY_EDGE_ROW_0_Right_0
*69 PHY_EDGE_ROW_1_Left_9
*70 PHY_EDGE_ROW_1_Right_1
*71 PHY_EDGE_ROW_2_Left_10
*72 PHY_EDGE_ROW_2_Right_2
*73 PHY_EDGE_ROW_3_Left_11
*74 PHY_EDGE_ROW_3_Right_3
*75 PHY_EDGE_ROW_4_Left_12
*76 PHY_EDGE_ROW_4_Right_4
*77 PHY_EDGE_ROW_5_Left_13
*78 PHY_EDGE_ROW_5_Right_5
*79 PHY_EDGE_ROW_6_Left_14
*80 PHY_EDGE_ROW_6_Right_6
*81 PHY_EDGE_ROW_7_Left_15
*82 PHY_EDGE_ROW_7_Right_7
*83 TAP_TAPCELL_ROW_0_16
*84 TAP_TAPCELL_ROW_2_17
*85 TAP_TAPCELL_ROW_4_18
*86 TAP_TAPCELL_ROW_6_19
*87 TAP_TAPCELL_ROW_7_20
*88 _23_
*89 _24_
*90 _25_
*91 _26_
*92 _27_
*93 _28_
*94 _29_
*95 _30_
*96 _31_
*97 _32_
*98 _33_
*99 _34_
*100 _35_
*101 _36_
*102 _37_
*103 _38_
*104 _39_
*105 _40_
*106 _41_
*107 _42_
*108 _43_
*109 _44_
*110 _45_
*111 _46_
*112 _47_
*113 _48_
*114 _49_
*115 clkbuf_0_clk
*116 clkbuf_1_0__f_clk
*117 clkbuf_1_1__f_clk
*118 hold1
*119 hold2
*120 hold3
*121 hold4
*122 input1
*123 input2
*124 input3
*125 output4
*126 output5
*127 output6
*128 output7

*PORTS
clk I
counter[0] O
counter[1] O
counter[2] O
counter[3] O
enable I
reset I
up_down I

*D_NET *3 0.00282859
*CONN
*P clk I
*I *115:A I *D sky130_fd_sc_hd__clkbuf_16
*CAP
1 clk 0.00128133
2 *115:A 0.00128133
3 *115:A *102:A 0
4 *115:A *116:A 0.000124661
5 *115:A *122:A 3.19385e-05
6 *115:A *123:A 0
7 *115:A *124:A 2.87684e-05
8 *115:A *18:12 6.65616e-05
9 *115:A *42:14 9.25014e-06
10 *115:A *42:29 4.75152e-06
*RES
1 clk *115:A 21.5144 
*END

*D_NET *4 0.00181157
*CONN
*P counter[0] O
*I *125:X O *D sky130_fd_sc_hd__buf_2
*CAP
1 counter[0] 0.000721416
2 *125:X 0.000721416
3 counter[0] counter[1] 0.000325233
4 counter[0] counter[2] 0
5 counter[0] *113:CLK 0
6 counter[0] *44:14 4.35048e-05
*RES
1 *125:X counter[0] 28.7115 
*END

*D_NET *5 0.00141346
*CONN
*P counter[1] O
*I *126:X O *D sky130_fd_sc_hd__buf_2
*CAP
1 counter[1] 0.000502804
2 *126:X 0.000502804
3 counter[1] counter[2] 8.26187e-05
4 counter[1] *43:14 0
5 counter[0] counter[1] 0.000325233
*RES
1 *126:X counter[1] 24.73 
*END

*D_NET *6 0.00138412
*CONN
*P counter[2] O
*I *127:X O *D sky130_fd_sc_hd__buf_2
*CAP
1 counter[2] 0.000528936
2 *127:X 0.000528936
3 counter[2] *104:A1 0
4 counter[2] *125:A 0.00011803
5 counter[2] *44:14 0.000125599
6 counter[0] counter[2] 0
7 counter[1] counter[2] 8.26187e-05
*RES
1 *127:X counter[2] 22.9283 
*END

*D_NET *7 0.000742488
*CONN
*P counter[3] O
*I *128:X O *D sky130_fd_sc_hd__buf_2
*CAP
1 counter[3] 0.000345629
2 *128:X 0.000345629
3 counter[3] *123:A 3.19385e-05
4 counter[3] *128:A 1.92905e-05
*RES
1 *128:X counter[3] 20.891 
*END

*D_NET *8 0.000609735
*CONN
*P enable I
*I *122:A I *D sky130_fd_sc_hd__buf_1
*CAP
1 enable 0.0002776
2 *122:A 0.0002776
3 *122:A *99:A2 0
4 *122:A *123:A 2.25951e-05
5 *115:A *122:A 3.19385e-05
*RES
1 enable *122:A 20.7838 
*END

*D_NET *9 0.00103995
*CONN
*P reset I
*I *123:A I *D sky130_fd_sc_hd__buf_1
*CAP
1 reset 0.000492706
2 *123:A 0.000492706
3 *123:A *128:A 0
4 counter[3] *123:A 3.19385e-05
5 *115:A *123:A 0
6 *122:A *123:A 2.25951e-05
*RES
1 reset *123:A 21.7504 
*END

*D_NET *10 0.000618669
*CONN
*P up_down I
*I *124:A I *D sky130_fd_sc_hd__buf_1
*CAP
1 up_down 0.00029495
2 *124:A 0.00029495
3 *115:A *124:A 2.87684e-05
*RES
1 up_down *124:A 20.7838 
*END

*D_NET *11 0.00277202
*CONN
*I *111:D I *D sky130_fd_sc_hd__dfxtp_1
*I *93:Y O *D sky130_fd_sc_hd__o21ai_1
*CAP
1 *111:D 0.000770684
2 *93:Y 0.000770684
3 *111:D *93:A2 7.43578e-06
4 *111:D *98:A1 0.000225609
5 *111:D *105:A1 6.57815e-05
6 *111:D *111:CLK 0.000484221
7 *111:D *113:CLK 0.000106403
8 *111:D *17:21 1.21258e-05
9 *111:D *35:8 1.07719e-05
10 *111:D *42:6 5.85596e-05
11 *111:D *43:14 0.000259744
*RES
1 *93:Y *111:D 42.9259 
*END

*D_NET *12 0.000755337
*CONN
*I *112:D I *D sky130_fd_sc_hd__dfxtp_1
*I *99:X O *D sky130_fd_sc_hd__a31o_1
*CAP
1 *112:D 0.000269541
2 *99:X 0.000269541
3 *112:D *91:A 0
4 *112:D *114:CLK 0.000112995
5 *112:D *121:A 0.00010326
*RES
1 *99:X *112:D 32.2116 
*END

*D_NET *13 0.000853243
*CONN
*I *113:D I *D sky130_fd_sc_hd__dfxtp_1
*I *105:Y O *D sky130_fd_sc_hd__o21ai_1
*CAP
1 *113:D 0.000186641
2 *105:Y 0.000186641
3 *113:D *104:A1 0.000211374
4 *113:D *104:A2 6.33897e-05
5 *113:D *104:B1 2.28598e-05
6 *113:D *113:CLK 0.000127114
7 *113:D *44:41 5.52238e-05
*RES
1 *105:Y *113:D 22.8366 
*END

*D_NET *14 0.00183743
*CONN
*I *121:A I *D sky130_fd_sc_hd__dlygate4sd3_1
*I *110:X O *D sky130_fd_sc_hd__a31o_1
*CAP
1 *121:A 0.000460482
2 *110:X 0.000460482
3 *121:A *88:A 0.000317602
4 *121:A *91:A 0
5 *121:A *93:B1 9.41642e-05
6 *121:A *99:A3 1.08359e-05
7 *121:A *108:B1 0.000131066
8 *121:A *109:D 0
9 *121:A *16:12 0.000259542
10 *112:D *121:A 0.00010326
*RES
1 *110:X *121:A 35.9036 
*END

*D_NET *15 0.00422283
*CONN
*I *90:A I *D sky130_fd_sc_hd__nor2_1
*I *99:A2 I *D sky130_fd_sc_hd__a31o_1
*I *110:A1 I *D sky130_fd_sc_hd__a31o_1
*I *89:B I *D sky130_fd_sc_hd__nand2_1
*I *88:Y O *D sky130_fd_sc_hd__inv_2
*CAP
1 *90:A 0
2 *99:A2 0.000509476
3 *110:A1 8.06605e-05
4 *89:B 0
5 *88:Y 0.000416967
6 *15:20 8.06605e-05
7 *15:18 0.000663364
8 *15:14 0.000570855
9 *99:A2 *108:B1 0.000130505
10 *99:A2 *109:A 0.000111481
11 *99:A2 *109:B 0.000144773
12 *99:A2 *109:C 0
13 *99:A2 *110:A3 0
14 *99:A2 *110:B1 0
15 *99:A2 *37:32 0.000103033
16 *99:A2 *45:12 2.80294e-05
17 *110:A1 *89:A 5.7661e-06
18 *110:A1 *16:12 0.000188586
19 *110:A1 *37:6 3.67257e-05
20 *110:A1 *37:15 5.23142e-05
21 *15:14 *90:B 0.000115674
22 *15:14 *97:A 5.80706e-06
23 *15:14 *97:B 6.8646e-06
24 *15:14 *99:A3 0
25 *15:14 *102:A 5.80706e-06
26 *15:14 *102:B 0
27 *15:14 *106:A2 3.33174e-05
28 *15:14 *106:A3 0.000271345
29 *15:14 *107:A_N 0.000306489
30 *15:14 *107:B 0.000166562
31 *15:14 *17:6 1.55885e-05
32 *15:14 *17:21 5.34513e-05
33 *15:14 *21:10 8.76484e-05
34 *15:14 *43:60 2.15363e-05
35 *15:18 *110:B1 0
36 *15:18 *41:29 9.54798e-06
37 *122:A *99:A2 0
*RES
1 *88:Y *15:14 28.8714 
2 *15:14 *15:18 6.75 
3 *15:18 *15:20 4.5 
4 *15:20 *89:B 9.3 
5 *15:20 *110:A1 11.9071 
6 *15:18 *99:A2 23.675 
7 *15:14 *90:A 9.3 
*END

*D_NET *16 0.00265354
*CONN
*I *105:A1 I *D sky130_fd_sc_hd__o21ai_1
*I *93:A2 I *D sky130_fd_sc_hd__o21ai_1
*I *89:Y O *D sky130_fd_sc_hd__nand2_1
*CAP
1 *105:A1 0.000110301
2 *93:A2 1.83626e-05
3 *89:Y 0.00033868
4 *16:12 0.000467343
5 *93:A2 *17:21 5.52238e-05
6 *105:A1 *88:A 2.23987e-05
7 *105:A1 *99:A3 0.000220095
8 *105:A1 *104:B1 0.000172015
9 *105:A1 *105:A2 1.02504e-05
10 *105:A1 *17:21 0.000135028
11 *16:12 *93:A1 2.04644e-05
12 *16:12 *93:B1 0.00021371
13 *16:12 *99:B1 0.000173797
14 *16:12 *108:A1 8.25843e-06
15 *16:12 *108:A2 2.05612e-05
16 *16:12 *108:A3 2.59355e-05
17 *16:12 *108:B1 8.35358e-06
18 *16:12 *110:A2 0.000102197
19 *16:12 *37:15 9.22103e-06
20 *110:A1 *16:12 0.000188586
21 *111:D *93:A2 7.43578e-06
22 *111:D *105:A1 6.57815e-05
23 *121:A *16:12 0.000259542
*RES
1 *89:Y *16:12 27.0321 
2 *16:12 *93:A2 9.83571 
3 *16:12 *105:A1 22.5143 
*END

*D_NET *17 0.00331591
*CONN
*I *98:B1 I *D sky130_fd_sc_hd__a21o_1
*I *92:B1 I *D sky130_fd_sc_hd__a21oi_1
*I *104:B1 I *D sky130_fd_sc_hd__a21oi_1
*I *110:B1 I *D sky130_fd_sc_hd__a31o_1
*I *90:Y O *D sky130_fd_sc_hd__nor2_1
*CAP
1 *98:B1 0
2 *92:B1 0.000106154
3 *104:B1 0.000133758
4 *110:B1 0.000124734
5 *90:Y 0.000114643
6 *17:23 0.000239912
7 *17:21 0.000274171
8 *17:6 0.000513548
9 *92:B1 *88:A 0.000147834
10 *92:B1 *99:A3 6.75178e-05
11 *92:B1 *108:B1 2.89016e-05
12 *104:B1 *88:A 0.000171886
13 *104:B1 *104:A2 5.71472e-05
14 *104:B1 *105:B1 6.01685e-05
15 *104:B1 *42:82 8.70001e-05
16 *104:B1 *44:41 0.000109246
17 *110:B1 *93:A1 0
18 *110:B1 *109:C 0
19 *110:B1 *30:10 0
20 *17:6 *90:B 2.25554e-05
21 *17:6 *107:A_N 7.77751e-05
22 *17:21 *98:A1 5.04841e-06
23 *17:21 *99:B1 0.000136951
24 *17:21 *107:A_N 6.87574e-05
25 *17:21 *107:B 0.000113323
26 *17:21 *30:10 0.000188586
27 *93:A2 *17:21 5.52238e-05
28 *99:A2 *110:B1 0
29 *105:A1 *104:B1 0.000172015
30 *105:A1 *17:21 0.000135028
31 *111:D *17:21 1.21258e-05
32 *113:D *104:B1 2.28598e-05
33 *15:14 *17:6 1.55885e-05
34 *15:14 *17:21 5.34513e-05
35 *15:18 *110:B1 0
*RES
1 *90:Y *17:6 11.4786 
2 *17:6 *110:B1 20.2464 
3 *17:6 *17:21 6.71429 
4 *17:21 *17:23 4.5 
5 *17:23 *104:B1 18.675 
6 *17:23 *92:B1 16.2821 
7 *17:21 *98:B1 9.3 
*END

*D_NET *18 0.00335358
*CONN
*I *92:A2 I *D sky130_fd_sc_hd__a21oi_1
*I *98:A2 I *D sky130_fd_sc_hd__a21o_1
*I *104:A2 I *D sky130_fd_sc_hd__a21oi_1
*I *91:Y O *D sky130_fd_sc_hd__nor2_1
*CAP
1 *92:A2 0
2 *98:A2 3.22637e-05
3 *104:A2 0.000237507
4 *91:Y 0.000472915
5 *18:12 0.000326443
6 *18:10 0.000529587
7 *98:A2 *42:29 3.43988e-06
8 *104:A2 *88:A 0.00019067
9 *104:A2 *105:B1 5.52302e-05
10 *104:A2 *42:29 0
11 *104:A2 *42:31 6.2589e-06
12 *104:A2 *42:82 4.58976e-05
13 *18:10 *88:A 0.000738927
14 *18:10 *117:A 9.58464e-05
15 *18:10 *36:12 6.5185e-05
16 *18:10 *40:8 1.33343e-05
17 *18:10 *42:14 0.000154762
18 *18:12 *88:A 0.000164781
19 *18:12 *42:14 3.34366e-05
20 *104:B1 *104:A2 5.71472e-05
21 *113:D *104:A2 6.33897e-05
22 *115:A *18:12 6.65616e-05
*RES
1 *91:Y *18:10 24.8357 
2 *18:10 *18:12 2.25 
3 *18:12 *104:A2 19.2107 
4 *18:12 *98:A2 14.4875 
5 *18:10 *92:A2 13.8 
*END

*D_NET *19 0.000904588
*CONN
*I *93:B1 I *D sky130_fd_sc_hd__o21ai_1
*I *92:Y O *D sky130_fd_sc_hd__a21oi_1
*CAP
1 *93:B1 0.000131589
2 *92:Y 0.000131589
3 *93:B1 *99:A3 0.000237442
4 *93:B1 *107:B 0
5 *93:B1 *108:B1 9.60939e-05
6 *121:A *93:B1 9.41642e-05
7 *16:12 *93:B1 0.00021371
*RES
1 *92:Y *93:B1 31.7071 
*END

*D_NET *20 0.000564926
*CONN
*I *95:B I *D sky130_fd_sc_hd__or2_1
*I *96:B I *D sky130_fd_sc_hd__nand2_1
*I *94:X O *D sky130_fd_sc_hd__xor2_1
*CAP
1 *95:B 1.69531e-05
2 *96:B 0
3 *94:X 0.000125664
4 *20:10 0.000142617
5 *95:B *95:A 5.33005e-05
6 *95:B *106:A2 5.33005e-05
7 *20:10 *102:A 0
8 *20:10 *102:B 0.00017309
9 *20:10 *41:12 0
*RES
1 *94:X *20:10 20.8536 
2 *20:10 *96:B 9.3 
3 *20:10 *95:B 9.83571 
*END

*D_NET *21 0.00185529
*CONN
*I *103:A I *D sky130_fd_sc_hd__xnor2_1
*I *97:A I *D sky130_fd_sc_hd__nand2_1
*I *95:X O *D sky130_fd_sc_hd__or2_1
*CAP
1 *103:A 3.42071e-05
2 *97:A 0.000236285
3 *95:X 0.000151186
4 *21:10 0.000421678
5 *97:A *97:B 0.000192983
6 *97:A *102:A 0
7 *103:A *88:A 9.41642e-05
8 *103:A *94:A 1.21258e-05
9 *103:A *103:B 5.33005e-05
10 *21:10 *97:B 0.00037077
11 *21:10 *106:A2 5.52302e-05
12 *21:10 *42:82 0.000139907
13 *15:14 *97:A 5.80706e-06
14 *15:14 *21:10 8.76484e-05
*RES
1 *95:X *21:10 18.1214 
2 *21:10 *97:A 18.1393 
3 *21:10 *103:A 14.7464 
*END

*D_NET *22 0.00215014
*CONN
*I *97:B I *D sky130_fd_sc_hd__nand2_1
*I *96:Y O *D sky130_fd_sc_hd__nand2_1
*CAP
1 *97:B 0.000370334
2 *96:Y 0.000370334
3 *97:B *99:A3 0.000351957
4 *97:B *106:A2 0.00020156
5 *97:B *26:8 0.000265453
6 *97:B *42:82 1.98839e-05
7 *97:A *97:B 0.000192983
8 *15:14 *97:B 6.8646e-06
9 *21:10 *97:B 0.00037077
*RES
1 *96:Y *97:B 37.8321 
*END

*D_NET *23 0.00223632
*CONN
*I *99:A3 I *D sky130_fd_sc_hd__a31o_1
*I *97:Y O *D sky130_fd_sc_hd__nand2_1
*CAP
1 *99:A3 0.000485723
2 *97:Y 0.000485723
3 *99:A3 *88:A 1.50087e-05
4 *99:A3 *99:B1 3.84179e-05
5 *99:A3 *105:A2 5.29944e-05
6 *99:A3 *107:B 0
7 *99:A3 *108:B1 0.000193447
8 *99:A3 *43:45 7.71596e-05
9 *92:B1 *99:A3 6.75178e-05
10 *93:B1 *99:A3 0.000237442
11 *97:B *99:A3 0.000351957
12 *105:A1 *99:A3 0.000220095
13 *121:A *99:A3 1.08359e-05
14 *15:14 *99:A3 0
*RES
1 *97:Y *99:A3 39.4929 
*END

*D_NET *24 0.00123938
*CONN
*I *99:B1 I *D sky130_fd_sc_hd__a31o_1
*I *98:X O *D sky130_fd_sc_hd__a21o_1
*CAP
1 *99:B1 0.000297018
2 *98:X 0.000297018
3 *99:B1 *93:A1 0.000262941
4 *99:B1 *37:21 3.32354e-05
5 *99:A3 *99:B1 3.84179e-05
6 *16:12 *99:B1 0.000173797
7 *17:21 *99:B1 0.000136951
*RES
1 *98:X *99:B1 33.6893 
*END

*D_NET *25 0.00095071
*CONN
*I *102:A I *D sky130_fd_sc_hd__nand2_1
*I *100:X O *D sky130_fd_sc_hd__a21o_1
*CAP
1 *102:A 0.000469559
2 *100:X 0.000469559
3 *102:A *42:35 5.7836e-06
4 *97:A *102:A 0
5 *115:A *102:A 0
6 *15:14 *102:A 5.80706e-06
7 *20:10 *102:A 0
*RES
1 *100:X *102:A 36.1169 
*END

*D_NET *26 0.00171377
*CONN
*I *106:B1 I *D sky130_fd_sc_hd__o31ai_1
*I *102:B I *D sky130_fd_sc_hd__nand2_1
*I *101:Y O *D sky130_fd_sc_hd__nand3_1
*CAP
1 *106:B1 0.000127261
2 *102:B 0.000195862
3 *101:Y 0.000190348
4 *26:8 0.000513471
5 *102:B *94:A 5.62995e-05
6 *102:B *94:B 9.90431e-05
7 *102:B *106:A2 1.85455e-05
8 *102:B *106:A3 1.71615e-05
9 *102:B *41:12 0
10 *102:B *43:60 3.5707e-05
11 *106:B1 *106:A2 2.1527e-05
12 *106:B1 *107:B 0
13 *106:B1 *41:29 0
14 *97:B *26:8 0.000265453
15 *15:14 *102:B 0
16 *20:10 *102:B 0.00017309
*RES
1 *101:Y *26:8 16.3893 
2 *26:8 *102:B 18.5679 
3 *26:8 *106:B1 15.7464 
*END

*D_NET *27 0.000494086
*CONN
*I *103:B I *D sky130_fd_sc_hd__xnor2_1
*I *102:Y O *D sky130_fd_sc_hd__nand2_1
*CAP
1 *103:B 6.34079e-05
2 *102:Y 6.34079e-05
3 *103:B *88:A 7.17136e-05
4 *103:B *94:A 0.000210554
5 *103:B *94:B 7.43578e-06
6 *103:B *43:45 2.42662e-05
7 *103:A *103:B 5.33005e-05
*RES
1 *102:Y *103:B 21.1893 
*END

*D_NET *28 0.000511537
*CONN
*I *105:A2 I *D sky130_fd_sc_hd__o21ai_1
*I *103:Y O *D sky130_fd_sc_hd__xnor2_1
*CAP
1 *105:A2 0.000120326
2 *103:Y 0.000120326
3 *105:A2 *88:A 0.000180955
4 *105:A2 *43:45 2.66854e-05
5 *99:A3 *105:A2 5.29944e-05
6 *105:A1 *105:A2 1.02504e-05
*RES
1 *103:Y *105:A2 30.1893 
*END

*D_NET *29 0.000288872
*CONN
*I *105:B1 I *D sky130_fd_sc_hd__o21ai_1
*I *104:Y O *D sky130_fd_sc_hd__a21oi_1
*CAP
1 *105:B1 3.86896e-05
2 *104:Y 3.86896e-05
3 *105:B1 *42:82 9.60939e-05
4 *104:A2 *105:B1 5.52302e-05
5 *104:B1 *105:B1 6.01685e-05
*RES
1 *104:Y *105:B1 19.975 
*END

*D_NET *30 0.00160579
*CONN
*I *109:C I *D sky130_fd_sc_hd__nand4_1
*I *108:A2 I *D sky130_fd_sc_hd__a31o_1
*I *106:Y O *D sky130_fd_sc_hd__o31ai_1
*CAP
1 *109:C 0.000135503
2 *108:A2 6.45272e-05
3 *106:Y 0.000180741
4 *30:10 0.000380771
5 *108:A2 *108:A1 8.90371e-05
6 *108:A2 *108:A3 5.33005e-05
7 *108:A2 *110:A2 1.64329e-05
8 *108:A2 *37:15 9.41642e-05
9 *109:C *109:D 0.000208776
10 *109:C *110:A3 4.25716e-05
11 *109:C *31:8 3.17148e-05
12 *30:10 *31:8 9.91086e-05
13 *99:A2 *109:C 0
14 *110:B1 *109:C 0
15 *110:B1 *30:10 0
16 *16:12 *108:A2 2.05612e-05
17 *17:21 *30:10 0.000188586
*RES
1 *106:Y *30:10 16.9071 
2 *30:10 *108:A2 15.5857 
3 *30:10 *109:C 16.9607 
*END

*D_NET *31 0.0010213
*CONN
*I *109:D I *D sky130_fd_sc_hd__nand4_1
*I *108:A3 I *D sky130_fd_sc_hd__a31o_1
*I *107:Y O *D sky130_fd_sc_hd__nand2b_1
*CAP
1 *109:D 8.02971e-05
2 *108:A3 2.04425e-05
3 *107:Y 5.70112e-05
4 *31:8 0.000157751
5 *109:D *91:A 4.1331e-06
6 *109:D *37:21 0.00019384
7 *31:8 *93:A1 3.48139e-05
8 *31:8 *37:21 5.41794e-05
9 *108:A2 *108:A3 5.33005e-05
10 *109:C *109:D 0.000208776
11 *109:C *31:8 3.17148e-05
12 *121:A *109:D 0
13 *16:12 *108:A3 2.59355e-05
14 *30:10 *31:8 9.91086e-05
*RES
1 *107:Y *31:8 15.4429 
2 *31:8 *108:A3 14.3357 
3 *31:8 *109:D 16.6571 
*END

*D_NET *32 0.000328966
*CONN
*I *110:A2 I *D sky130_fd_sc_hd__a31o_1
*I *108:X O *D sky130_fd_sc_hd__a31o_1
*CAP
1 *110:A2 5.70952e-05
2 *108:X 5.70952e-05
3 *110:A2 *108:B1 0
4 *110:A2 *37:15 9.61455e-05
5 *108:A2 *110:A2 1.64329e-05
6 *16:12 *110:A2 0.000102197
*RES
1 *108:X *110:A2 20.7964 
*END

*D_NET *33 0.000339799
*CONN
*I *110:A3 I *D sky130_fd_sc_hd__a31o_1
*I *109:Y O *D sky130_fd_sc_hd__nand4_1
*CAP
1 *110:A3 0.000120999
2 *109:Y 0.000120999
3 *110:A3 *108:B1 5.52302e-05
4 *99:A2 *110:A3 0
5 *109:C *110:A3 4.25716e-05
*RES
1 *109:Y *110:A3 29.7786 
*END

*D_NET *34 0.00253124
*CONN
*I *117:A I *D sky130_fd_sc_hd__clkbuf_16
*I *116:A I *D sky130_fd_sc_hd__clkbuf_16
*I *115:X O *D sky130_fd_sc_hd__clkbuf_16
*CAP
1 *117:A 0.000347434
2 *116:A 0.000123316
3 *115:X 0.000500851
4 *34:8 0.000971601
5 *116:A *98:A1 3.18676e-05
6 *116:A *42:14 5.54602e-05
7 *116:A *42:29 0.000100474
8 *116:A *43:14 0
9 *117:A *88:A 0
10 *117:A *36:12 0.000142255
11 *117:A *42:14 3.34687e-05
12 *117:A *43:14 0
13 *34:8 *42:29 4.00276e-06
14 *115:A *116:A 0.000124661
15 *18:10 *117:A 9.58464e-05
*RES
1 *115:X *34:8 19.2643 
2 *34:8 *116:A 17.1929 
3 *34:8 *117:A 21.1393 
*END

*D_NET *35 0.00265736
*CONN
*I *111:CLK I *D sky130_fd_sc_hd__dfxtp_1
*I *113:CLK I *D sky130_fd_sc_hd__dfxtp_1
*I *116:X O *D sky130_fd_sc_hd__clkbuf_16
*CAP
1 *111:CLK 0.000273791
2 *113:CLK 0.000272539
3 *116:X 0.000157608
4 *35:8 0.000703938
5 *111:CLK *42:6 3.02047e-05
6 *111:CLK *43:14 0.000354702
7 *113:CLK *104:A1 5.28386e-05
8 *113:CLK *43:14 8.32242e-05
9 counter[0] *113:CLK 0
10 *111:D *111:CLK 0.000484221
11 *111:D *113:CLK 0.000106403
12 *111:D *35:8 1.07719e-05
13 *113:D *113:CLK 0.000127114
*RES
1 *116:X *35:8 15.5679 
2 *35:8 *113:CLK 19.8536 
3 *35:8 *111:CLK 21.4964 
*END

*D_NET *36 0.00202332
*CONN
*I *112:CLK I *D sky130_fd_sc_hd__dfxtp_1
*I *114:CLK I *D sky130_fd_sc_hd__dfxtp_1
*I *117:X O *D sky130_fd_sc_hd__clkbuf_16
*CAP
1 *112:CLK 0
2 *114:CLK 0.000264138
3 *117:X 0.000571372
4 *36:12 0.00083551
5 *114:CLK *114:D 3.18676e-05
6 *112:D *114:CLK 0.000112995
7 *117:A *36:12 0.000142255
8 *18:10 *36:12 6.5185e-05
*RES
1 *117:X *36:12 25.8179 
2 *36:12 *114:CLK 13.9429 
3 *36:12 *112:CLK 9.3 
*END

*D_NET *37 0.00355766
*CONN
*I *108:A1 I *D sky130_fd_sc_hd__a31o_1
*I *99:A1 I *D sky130_fd_sc_hd__a31o_1
*I *91:A I *D sky130_fd_sc_hd__nor2_1
*I *109:A I *D sky130_fd_sc_hd__nand4_1
*I *89:A I *D sky130_fd_sc_hd__nand2_1
*I *122:X O *D sky130_fd_sc_hd__buf_1
*CAP
1 *108:A1 0.000103232
2 *99:A1 0
3 *91:A 0.000326421
4 *109:A 5.53612e-05
5 *89:A 3.62004e-05
6 *122:X 0.000109373
7 *37:32 0.000368875
8 *37:21 0.000193496
9 *37:15 0.000504629
10 *37:6 0.000451291
11 *91:A *88:A 5.52238e-05
12 *109:A *108:B1 0.000224577
13 *37:21 *93:A1 0.000193125
14 *37:32 *108:B1 4.43256e-05
15 *99:A2 *109:A 0.000111481
16 *99:A2 *37:32 0.000103033
17 *99:B1 *37:21 3.32354e-05
18 *108:A2 *108:A1 8.90371e-05
19 *108:A2 *37:15 9.41642e-05
20 *109:D *91:A 4.1331e-06
21 *109:D *37:21 0.00019384
22 *110:A1 *89:A 5.7661e-06
23 *110:A1 *37:6 3.67257e-05
24 *110:A1 *37:15 5.23142e-05
25 *110:A2 *37:15 9.61455e-05
26 *112:D *91:A 0
27 *121:A *91:A 0
28 *16:12 *108:A1 8.25843e-06
29 *16:12 *37:15 9.22103e-06
30 *31:8 *37:21 5.41794e-05
*RES
1 *122:X *37:6 10.6571 
2 *37:6 *89:A 10.0321 
3 *37:6 *37:15 4.23214 
4 *37:15 *37:21 12.1607 
5 *37:21 *109:A 11.4786 
6 *37:21 *37:32 1.375 
7 *37:32 *91:A 23.8179 
8 *37:32 *99:A1 9.3 
9 *37:15 *108:A1 10.9786 
*END

*D_NET *38 0.00032144
*CONN
*I *109:B I *D sky130_fd_sc_hd__nand4_1
*I *120:X O *D sky130_fd_sc_hd__dlygate4sd3_1
*CAP
1 *109:B 8.83335e-05
2 *120:X 8.83335e-05
3 *99:A2 *109:B 0.000144773
*RES
1 *120:X *109:B 19.9571 
*END

*D_NET *39 0.000223564
*CONN
*I *114:D I *D sky130_fd_sc_hd__dfxtp_1
*I *121:X O *D sky130_fd_sc_hd__dlygate4sd3_1
*CAP
1 *114:D 9.58482e-05
2 *121:X 9.58482e-05
3 *114:CLK *114:D 3.18676e-05
*RES
1 *121:X *114:D 20.2295 
*END

*D_NET *40 0.00452398
*CONN
*I *88:A I *D sky130_fd_sc_hd__inv_2
*I *91:B I *D sky130_fd_sc_hd__nor2_1
*I *123:X O *D sky130_fd_sc_hd__buf_1
*CAP
1 *88:A 0.000693294
2 *91:B 2.23854e-05
3 *123:X 0.000236745
4 *40:8 0.000952425
5 *88:A *94:A 7.49387e-06
6 *88:A *94:B 5.7661e-06
7 *88:A *108:B1 3.27818e-05
8 *88:A *42:31 0
9 *88:A *43:45 0.000326677
10 *88:A *44:41 6.19181e-05
11 *91:A *88:A 5.52238e-05
12 *92:B1 *88:A 0.000147834
13 *99:A3 *88:A 1.50087e-05
14 *103:A *88:A 9.41642e-05
15 *103:B *88:A 7.17136e-05
16 *104:A2 *88:A 0.00019067
17 *104:B1 *88:A 0.000171886
18 *105:A1 *88:A 2.23987e-05
19 *105:A2 *88:A 0.000180955
20 *117:A *88:A 0
21 *121:A *88:A 0.000317602
22 *18:10 *88:A 0.000738927
23 *18:10 *40:8 1.33343e-05
24 *18:12 *88:A 0.000164781
*RES
1 *123:X *40:8 13.1393 
2 *40:8 *91:B 9.72857 
3 *40:8 *88:A 40.05 
*END

*D_NET *41 0.00235095
*CONN
*I *95:A I *D sky130_fd_sc_hd__or2_1
*I *96:A I *D sky130_fd_sc_hd__nand2_1
*I *106:A1 I *D sky130_fd_sc_hd__o31ai_1
*I *107:A_N I *D sky130_fd_sc_hd__nand2b_1
*I *90:B I *D sky130_fd_sc_hd__nor2_1
*I *124:X O *D sky130_fd_sc_hd__buf_1
*CAP
1 *95:A 0.000110206
2 *96:A 1.91209e-05
3 *106:A1 0
4 *107:A_N 7.98083e-05
5 *90:B 0.000134342
6 *124:X 8.68039e-05
7 *41:47 0.000205844
8 *41:29 0.000188409
9 *41:12 0.00036414
10 *41:8 0.000284519
11 *95:A *106:A2 0.000119853
12 *96:A *106:A2 0
13 *41:12 *106:A2 6.74815e-05
14 *41:29 *106:A2 4.46186e-06
15 *41:47 *106:A2 3.18676e-05
16 *95:B *95:A 5.33005e-05
17 *102:B *41:12 0
18 *106:B1 *41:29 0
19 *15:14 *90:B 0.000115674
20 *15:14 *107:A_N 0.000306489
21 *15:18 *41:29 9.54798e-06
22 *17:6 *90:B 2.25554e-05
23 *17:6 *107:A_N 7.77751e-05
24 *17:21 *107:A_N 6.87574e-05
25 *20:10 *41:12 0
*RES
1 *124:X *41:8 10.675 
2 *41:8 *41:12 6.75 
3 *41:12 *90:B 16.3179 
4 *41:12 *41:29 5.53571 
5 *41:29 *107:A_N 12.7464 
6 *41:29 *106:A1 9.3 
7 *41:8 *41:47 1.35714 
8 *41:47 *96:A 9.72857 
9 *41:47 *95:A 11.4786 
*END

*D_NET *42 0.00952026
*CONN
*I *119:A I *D sky130_fd_sc_hd__dlygate4sd3_1
*I *101:A I *D sky130_fd_sc_hd__nand3_1
*I *106:A2 I *D sky130_fd_sc_hd__o31ai_1
*I *100:A1 I *D sky130_fd_sc_hd__a21o_1
*I *125:A I *D sky130_fd_sc_hd__buf_2
*I *94:A I *D sky130_fd_sc_hd__xor2_1
*I *92:A1 I *D sky130_fd_sc_hd__a21oi_1
*I *111:Q O *D sky130_fd_sc_hd__dfxtp_1
*CAP
1 *119:A 3.80696e-05
2 *101:A 0
3 *106:A2 0.000224716
4 *100:A1 3.96417e-05
5 *125:A 0.000412968
6 *94:A 0.000663926
7 *92:A1 7.31525e-05
8 *111:Q 0.000572217
9 *42:82 0.000602035
10 *42:35 0.00117264
11 *42:31 0.000262708
12 *42:29 0.000818514
13 *42:14 0.000609929
14 *42:6 0.000833188
15 *94:A *94:B 0.000117606
16 *94:A *43:45 0.000171023
17 *100:A1 *44:31 5.49544e-05
18 *106:A2 *101:B 9.60939e-05
19 *125:A *127:A 5.544e-05
20 *125:A *43:45 9.83442e-05
21 *125:A *44:16 7.32756e-05
22 *125:A *44:31 0.000124325
23 *42:29 *43:14 0
24 *42:29 *43:33 0.00012401
25 *42:31 *43:33 0.000119094
26 *42:31 *44:41 2.83916e-05
27 *42:35 *127:A 0
28 *42:35 *43:33 2.84398e-05
29 *42:35 *43:45 0
30 *42:35 *44:41 1.19402e-05
31 *42:82 *101:B 4.18895e-05
32 *42:82 *107:B 3.8274e-05
33 *42:82 *44:41 0.000113175
34 counter[2] *125:A 0.00011803
35 *88:A *94:A 7.49387e-06
36 *88:A *42:31 0
37 *95:A *106:A2 0.000119853
38 *95:B *106:A2 5.33005e-05
39 *96:A *106:A2 0
40 *97:B *106:A2 0.00020156
41 *97:B *42:82 1.98839e-05
42 *98:A2 *42:29 3.43988e-06
43 *102:A *42:35 5.7836e-06
44 *102:B *94:A 5.62995e-05
45 *102:B *106:A2 1.85455e-05
46 *103:A *94:A 1.21258e-05
47 *103:B *94:A 0.000210554
48 *104:A2 *42:29 0
49 *104:A2 *42:31 6.2589e-06
50 *104:A2 *42:82 4.58976e-05
51 *104:B1 *42:82 8.70001e-05
52 *105:B1 *42:82 9.60939e-05
53 *106:B1 *106:A2 2.1527e-05
54 *111:CLK *42:6 3.02047e-05
55 *111:D *42:6 5.85596e-05
56 *115:A *42:14 9.25014e-06
57 *115:A *42:29 4.75152e-06
58 *116:A *42:14 5.54602e-05
59 *116:A *42:29 0.000100474
60 *117:A *42:14 3.34687e-05
61 *15:14 *106:A2 3.33174e-05
62 *18:10 *42:14 0.000154762
63 *18:12 *42:14 3.34366e-05
64 *21:10 *106:A2 5.52302e-05
65 *21:10 *42:82 0.000139907
66 *34:8 *42:29 4.00276e-06
67 *41:12 *106:A2 6.74815e-05
68 *41:29 *106:A2 4.46186e-06
69 *41:47 *106:A2 3.18676e-05
*RES
1 *111:Q *42:6 15.9964 
2 *42:6 *42:14 13.0179 
3 *42:14 *92:A1 10.2464 
4 *42:14 *42:29 9.75 
5 *42:29 *42:31 2.55357 
6 *42:31 *42:35 5.83929 
7 *42:35 *94:A 20.5857 
8 *42:35 *125:A 26.55 
9 *42:31 *100:A1 14.3357 
10 *42:29 *42:82 11.125 
11 *42:82 *106:A2 24.6482 
12 *42:82 *101:A 9.3 
13 *42:6 *119:A 10.0321 
*END

*D_NET *43 0.00724928
*CONN
*I *126:A I *D sky130_fd_sc_hd__buf_2
*I *100:A2 I *D sky130_fd_sc_hd__a21o_1
*I *106:A3 I *D sky130_fd_sc_hd__o31ai_1
*I *101:B I *D sky130_fd_sc_hd__nand3_1
*I *94:B I *D sky130_fd_sc_hd__xor2_1
*I *98:A1 I *D sky130_fd_sc_hd__a21o_1
*I *112:Q O *D sky130_fd_sc_hd__dfxtp_1
*CAP
1 *126:A 6.88799e-05
2 *100:A2 0
3 *106:A3 0.000283757
4 *101:B 4.61748e-05
5 *94:B 0.000193595
6 *98:A1 0.00010661
7 *112:Q 0
8 *43:60 0.000386637
9 *43:45 0.000660568
10 *43:33 0.000687885
11 *43:14 0.00101688
12 *43:4 0.000701535
13 *101:B *107:B 9.71197e-05
14 *106:A3 *107:B 0.000168939
15 *43:45 *100:B1 3.99614e-06
16 *43:45 *44:31 6.74893e-05
17 *43:45 *44:41 5.62995e-05
18 *43:60 *107:B 3.34295e-05
19 counter[1] *43:14 0
20 *88:A *94:B 5.7661e-06
21 *88:A *43:45 0.000326677
22 *94:A *94:B 0.000117606
23 *94:A *43:45 0.000171023
24 *99:A3 *43:45 7.71596e-05
25 *102:B *94:B 9.90431e-05
26 *102:B *106:A3 1.71615e-05
27 *102:B *43:60 3.5707e-05
28 *103:B *94:B 7.43578e-06
29 *103:B *43:45 2.42662e-05
30 *105:A2 *43:45 2.66854e-05
31 *106:A2 *101:B 9.60939e-05
32 *111:CLK *43:14 0.000354702
33 *111:D *98:A1 0.000225609
34 *111:D *43:14 0.000259744
35 *113:CLK *43:14 8.32242e-05
36 *116:A *98:A1 3.18676e-05
37 *116:A *43:14 0
38 *117:A *43:14 0
39 *125:A *43:45 9.83442e-05
40 *15:14 *106:A3 0.000271345
41 *15:14 *43:60 2.15363e-05
42 *17:21 *98:A1 5.04841e-06
43 *42:29 *43:14 0
44 *42:29 *43:33 0.00012401
45 *42:31 *43:33 0.000119094
46 *42:35 *43:33 2.84398e-05
47 *42:35 *43:45 0
48 *42:82 *101:B 4.18895e-05
*RES
1 *112:Q *43:4 9.3 
2 *43:4 *43:14 20.9821 
3 *43:14 *98:A1 11.9071 
4 *43:14 *43:33 14.3393 
5 *43:33 *43:45 17.6964 
6 *43:45 *94:B 13.4607 
7 *43:45 *43:60 5.83929 
8 *43:60 *101:B 15.1571 
9 *43:60 *106:A3 18.6393 
10 *43:33 *100:A2 9.3 
11 *43:4 *126:A 10.5679 
*END

*D_NET *44 0.00416131
*CONN
*I *118:A I *D sky130_fd_sc_hd__dlygate4sd3_1
*I *100:B1 I *D sky130_fd_sc_hd__a21o_1
*I *101:C I *D sky130_fd_sc_hd__nand3_1
*I *107:B I *D sky130_fd_sc_hd__nand2b_1
*I *127:A I *D sky130_fd_sc_hd__buf_2
*I *113:Q O *D sky130_fd_sc_hd__dfxtp_1
*CAP
1 *118:A 0
2 *100:B1 2.06112e-05
3 *101:C 0
4 *107:B 0.00031946
5 *127:A 0.000149236
6 *113:Q 0.000172732
7 *44:41 0.000593955
8 *44:31 0.000543463
9 *44:16 0.000490406
10 *44:14 0.000265544
11 *107:B *93:A1 3.47641e-06
12 counter[0] *44:14 4.35048e-05
13 counter[2] *44:14 0.000125599
14 *88:A *44:41 6.19181e-05
15 *93:B1 *107:B 0
16 *99:A3 *107:B 0
17 *100:A1 *44:31 5.49544e-05
18 *101:B *107:B 9.71197e-05
19 *104:B1 *44:41 0.000109246
20 *106:A3 *107:B 0.000168939
21 *106:B1 *107:B 0
22 *113:D *44:41 5.52238e-05
23 *125:A *127:A 5.544e-05
24 *125:A *44:16 7.32756e-05
25 *125:A *44:31 0.000124325
26 *15:14 *107:B 0.000166562
27 *17:21 *107:B 0.000113323
28 *42:31 *44:41 2.83916e-05
29 *42:35 *127:A 0
30 *42:35 *44:41 1.19402e-05
31 *42:82 *107:B 3.8274e-05
32 *42:82 *44:41 0.000113175
33 *43:45 *100:B1 3.99614e-06
34 *43:45 *44:31 6.74893e-05
35 *43:45 *44:41 5.62995e-05
36 *43:60 *107:B 3.34295e-05
*RES
1 *113:Q *44:14 21.425 
2 *44:14 *44:16 1.76786 
3 *44:16 *127:A 21.1571 
4 *44:16 *44:31 5.07143 
5 *44:31 *44:41 14.5893 
6 *44:41 *107:B 25.0411 
7 *44:41 *101:C 9.3 
8 *44:31 *100:B1 9.72857 
9 *44:14 *118:A 9.3 
*END

*D_NET *45 0.00326706
*CONN
*I *128:A I *D sky130_fd_sc_hd__buf_2
*I *120:A I *D sky130_fd_sc_hd__dlygate4sd3_1
*I *108:B1 I *D sky130_fd_sc_hd__a31o_1
*I *114:Q O *D sky130_fd_sc_hd__dfxtp_1
*CAP
1 *128:A 0.000275298
2 *120:A 0
3 *108:B1 0.000558387
4 *114:Q 0
5 *45:12 0.0007506
6 *45:6 0.000467512
7 *108:B1 *93:A1 0.00022266
8 counter[3] *128:A 1.92905e-05
9 *88:A *108:B1 3.27818e-05
10 *92:B1 *108:B1 2.89016e-05
11 *93:B1 *108:B1 9.60939e-05
12 *99:A2 *108:B1 0.000130505
13 *99:A2 *45:12 2.80294e-05
14 *99:A3 *108:B1 0.000193447
15 *109:A *108:B1 0.000224577
16 *110:A2 *108:B1 0
17 *110:A3 *108:B1 5.52302e-05
18 *121:A *108:B1 0.000131066
19 *123:A *128:A 0
20 *16:12 *108:B1 8.35358e-06
21 *37:32 *108:B1 4.43256e-05
*RES
1 *114:Q *45:6 13.8 
2 *45:6 *45:12 7.80357 
3 *45:12 *108:B1 31.0232 
4 *45:12 *120:A 9.3 
5 *45:6 *128:A 18.6214 
*END

*D_NET *46 0.000837456
*CONN
*I *104:A1 I *D sky130_fd_sc_hd__a21oi_1
*I *118:X O *D sky130_fd_sc_hd__dlygate4sd3_1
*CAP
1 *104:A1 0.000286621
2 *118:X 0.000286621
3 counter[2] *104:A1 0
4 *113:CLK *104:A1 5.28386e-05
5 *113:D *104:A1 0.000211374
*RES
1 *118:X *104:A1 31.6357 
*END

*D_NET *47 0.00145203
*CONN
*I *93:A1 I *D sky130_fd_sc_hd__o21ai_1
*I *119:X O *D sky130_fd_sc_hd__dlygate4sd3_1
*CAP
1 *93:A1 0.000357275
2 *119:X 0.000357275
3 *99:B1 *93:A1 0.000262941
4 *107:B *93:A1 3.47641e-06
5 *108:B1 *93:A1 0.00022266
6 *110:B1 *93:A1 0
7 *16:12 *93:A1 2.04644e-05
8 *31:8 *93:A1 3.48139e-05
9 *37:21 *93:A1 0.000193125
*RES
1 *119:X *93:A1 34.2607 
*END
