*SPEF "ieee 1481-1999"
*DESIGN "counter_dut"
*DATE "11:16:33 Wednesday December 04, 2024"
*VENDOR "The OpenROAD Project"
*PROGRAM "OpenROAD"
*VERSION "edf00dff99f6c40d67a30c0e22a8191c5d2ed9d6"
*DESIGN_FLOW "NAME_SCOPE LOCAL" "PIN_CAP NONE"
*DIVIDER /
*DELIMITER :
*BUS_DELIMITER []
*T_UNIT 1 NS
*C_UNIT 1 PF
*R_UNIT 1 OHM
*L_UNIT 1 HENRY

*NAME_MAP
*1 clk
*2 counter[0]
*3 counter[1]
*4 counter[2]
*5 counter[3]
*6 enable
*7 reset
*8 up_down
*11 _00_
*12 _01_
*13 _02_
*14 _03_
*15 _04_
*16 _05_
*17 _06_
*18 _07_
*19 _08_
*20 _09_
*21 _10_
*22 _11_
*23 _12_
*24 _13_
*25 _14_
*26 _15_
*27 _16_
*28 _17_
*29 _18_
*30 _19_
*31 _20_
*32 _21_
*33 _22_
*34 clknet_0_clk
*35 clknet_1_0__leaf_clk
*36 clknet_1_1__leaf_clk
*37 net1
*38 net2
*39 net3
*40 net4
*41 net5
*42 net6
*43 net7
*44 _23_
*45 _24_
*46 _25_
*47 _26_
*48 _27_
*49 _28_
*50 _29_
*51 _30_
*52 _31_
*53 _32_
*54 _33_
*55 _34_
*56 _35_
*57 _36_
*58 _37_
*59 _38_
*60 _39_
*61 _40_
*62 _41_
*63 _42_
*64 _43_
*65 _44_
*66 _45_
*67 _46_
*68 _47_
*69 _48_
*70 _49_
*71 clkbuf_0_clk
*72 clkbuf_1_0__f_clk
*73 clkbuf_1_1__f_clk
*74 input1
*75 input2
*76 input3
*77 output4
*78 output5
*79 output6
*80 output7

*PORTS
clk I
counter[0] O
counter[1] O
counter[2] O
counter[3] O
enable I
reset I
up_down I

*D_NET *1 0.00132792
*CONN
*P clk I
*I *71:A I *D sky130_fd_sc_hd__clkbuf_16
*CAP
1 clk 0.000574662
2 *71:A 0.000574662
3 *71:A *54:A1 1.17701e-05
4 *71:A *65:C 0
5 *71:A *74:A 5.63302e-05
6 *71:A *76:A 5.38666e-05
7 *71:A *17:10 5.66282e-05
8 *71:A *30:16 0
*RES
1 clk *71:A 6.99577 
*END

*D_NET *2 0.000351825
*CONN
*P counter[0] O
*I *77:X O *D sky130_fd_sc_hd__buf_1
*CAP
1 counter[0] 0.000148976
2 *77:X 0.000148976
3 counter[0] counter[1] 5.3873e-05
4 counter[0] *40:10 0
*RES
1 *77:X counter[0] 5.18197 
*END

*D_NET *3 0.000453545
*CONN
*P counter[1] O
*I *78:X O *D sky130_fd_sc_hd__buf_1
*CAP
1 counter[1] 0.000171671
2 *78:X 0.000171671
3 counter[1] counter[2] 5.63302e-05
4 counter[1] *40:16 0
5 counter[1] *42:14 0
6 counter[0] counter[1] 5.3873e-05
*RES
1 *78:X counter[1] 6.20197 
*END

*D_NET *4 0.000486806
*CONN
*P counter[2] O
*I *79:X O *D sky130_fd_sc_hd__buf_1
*CAP
1 counter[2] 0.000215238
2 *79:X 0.000215238
3 counter[1] counter[2] 5.63302e-05
*RES
1 *79:X counter[2] 5.10177 
*END

*D_NET *5 0.000286796
*CONN
*P counter[3] O
*I *80:X O *D sky130_fd_sc_hd__buf_1
*CAP
1 counter[3] 0.000116465
2 *80:X 0.000116465
3 counter[3] *75:A 5.38666e-05
*RES
1 *80:X counter[3] 4.67197 
*END

*D_NET *6 0.000384367
*CONN
*P enable I
*I *74:A I *D sky130_fd_sc_hd__buf_1
*CAP
1 enable 0.000112232
2 *74:A 0.000112232
3 *74:A *70:CLK 4.97067e-05
4 *74:A *75:A 5.38666e-05
5 *71:A *74:A 5.63302e-05
*RES
1 enable *74:A 5.43697 
*END

*D_NET *7 0.000423577
*CONN
*P reset I
*I *75:A I *D sky130_fd_sc_hd__buf_1
*CAP
1 reset 0.000126351
2 *75:A 0.000126351
3 *75:A *70:CLK 6.31427e-05
4 counter[3] *75:A 5.38666e-05
5 *74:A *75:A 5.38666e-05
*RES
1 reset *75:A 5.69197 
*END

*D_NET *8 0.000457249
*CONN
*P up_down I
*I *76:A I *D sky130_fd_sc_hd__buf_1
*CAP
1 up_down 0.000201691
2 *76:A 0.000201691
3 *71:A *76:A 5.38666e-05
*RES
1 up_down *76:A 6.20197 
*END

*D_NET *11 0.000651303
*CONN
*I *67:D I *D sky130_fd_sc_hd__dfxtp_1
*I *49:Y O *D sky130_fd_sc_hd__o21ai_1
*CAP
1 *67:D 0.000156948
2 *49:Y 0.000156948
3 *67:D *49:B1 0.000201503
4 *67:D *61:A1 0
5 *67:D *73:A 0
6 *67:D *16:8 1.85674e-05
7 *67:D *18:20 0
8 *67:D *36:10 0.000117336
*RES
1 *49:Y *67:D 11.1637 
*END

*D_NET *12 0.000654236
*CONN
*I *68:D I *D sky130_fd_sc_hd__dfxtp_1
*I *55:X O *D sky130_fd_sc_hd__a31o_1
*CAP
1 *68:D 0.000327118
2 *55:X 0.000327118
3 *68:D *68:CLK 0
4 *68:D *70:CLK 0
5 *68:D *30:16 0
6 *68:D *39:10 0
*RES
1 *55:X *68:D 12.7388 
*END

*D_NET *13 0.00032572
*CONN
*I *69:D I *D sky130_fd_sc_hd__dfxtp_1
*I *61:Y O *D sky130_fd_sc_hd__o21ai_1
*CAP
1 *69:D 0.000140517
2 *61:Y 0.000140517
3 *69:D *53:B 0
4 *69:D *58:A 0
5 *69:D *60:A1 4.40174e-07
6 *69:D *63:B 0
7 *69:D *69:CLK 3.93206e-05
8 *69:D *72:A 4.9253e-06
9 *69:D *41:62 0
10 *69:D *42:22 0
*RES
1 *61:Y *69:D 5.885 
*END

*D_NET *14 0.000609967
*CONN
*I *70:D I *D sky130_fd_sc_hd__dfxtp_1
*I *66:X O *D sky130_fd_sc_hd__a31o_1
*CAP
1 *70:D 0.000263338
2 *66:X 0.000263338
3 *70:D *47:B 0
4 *70:D *66:A2 2.61299e-05
5 *70:D *66:A3 1.85674e-05
6 *70:D *80:A 0
7 *70:D *18:8 3.85943e-05
8 *70:D *37:10 0
*RES
1 *66:X *70:D 8.18375 
*END

*D_NET *15 0.0029366
*CONN
*I *45:B I *D sky130_fd_sc_hd__nand2_1
*I *66:A1 I *D sky130_fd_sc_hd__a31o_1
*I *46:A I *D sky130_fd_sc_hd__nor2_1
*I *55:A2 I *D sky130_fd_sc_hd__a31o_1
*I *44:Y O *D sky130_fd_sc_hd__inv_2
*CAP
1 *45:B 0
2 *66:A1 4.58332e-05
3 *46:A 5.36719e-05
4 *55:A2 0
5 *44:Y 0.000128023
6 *15:38 0.000247189
7 *15:21 0.000368004
8 *15:12 0.000241
9 *46:A *53:A 9.50342e-06
10 *46:A *55:A3 7.70758e-05
11 *46:A *61:A1 0
12 *46:A *63:A_N 0.000157503
13 *46:A *63:B 1.70935e-05
14 *46:A *39:40 5.53249e-06
15 *66:A1 *49:A1 0
16 *66:A1 *66:A3 8.17874e-05
17 *66:A1 *66:B1 2.92834e-05
18 *66:A1 *16:8 0
19 *15:12 *64:A1 6.6564e-05
20 *15:12 *70:CLK 0
21 *15:12 *30:16 0.000142301
22 *15:12 *37:10 9.91257e-05
23 *15:12 *37:26 9.43648e-05
24 *15:21 *55:A3 0.000261514
25 *15:21 *55:B1 0.00012657
26 *15:21 *17:16 0.00015639
27 *15:21 *37:26 2.49909e-05
28 *15:21 *37:35 7.54156e-05
29 *15:38 *45:A 8.6099e-05
30 *15:38 *63:A_N 0.000157206
31 *15:38 *63:B 0.00014462
32 *15:38 *65:C 3.99395e-05
33 *15:38 *66:A2 0
*RES
1 *44:Y *15:12 9.755 
2 *15:12 *55:A2 1.6 
3 *15:12 *15:21 6.245 
4 *15:21 *46:A 5.49 
5 *15:21 *15:38 6.74 
6 *15:38 *66:A1 3.1 
7 *15:38 *45:B 1.6 
*END

*D_NET *16 0.00130678
*CONN
*I *61:A1 I *D sky130_fd_sc_hd__o21ai_1
*I *49:A2 I *D sky130_fd_sc_hd__o21ai_1
*I *45:Y O *D sky130_fd_sc_hd__nand2_1
*CAP
1 *61:A1 0.000216868
2 *49:A2 0
3 *45:Y 5.16091e-05
4 *16:8 0.000268477
5 *61:A1 *45:A 6.147e-05
6 *61:A1 *49:A1 3.21634e-05
7 *61:A1 *53:A 0
8 *61:A1 *55:A3 0
9 *61:A1 *61:B1 0
10 *61:A1 *63:B 0
11 *61:A1 *65:A 0.000143961
12 *61:A1 *65:B 3.1562e-06
13 *61:A1 *66:A3 0.000164679
14 *61:A1 *72:A 5.74095e-05
15 *61:A1 *73:A 0.000133529
16 *16:8 *49:A1 3.25635e-05
17 *16:8 *66:A3 0.000122331
18 *46:A *61:A1 0
19 *66:A1 *16:8 0
20 *67:D *61:A1 0
21 *67:D *16:8 1.85674e-05
*RES
1 *45:Y *16:8 3.1 
2 *16:8 *49:A2 1.6 
3 *16:8 *61:A1 12.02 
*END

*D_NET *17 0.00363501
*CONN
*I *66:B1 I *D sky130_fd_sc_hd__a31o_1
*I *54:B1 I *D sky130_fd_sc_hd__a21o_1
*I *60:B1 I *D sky130_fd_sc_hd__a21oi_1
*I *48:B1 I *D sky130_fd_sc_hd__a21oi_1
*I *46:Y O *D sky130_fd_sc_hd__nor2_1
*CAP
1 *66:B1 0.000180639
2 *54:B1 8.68494e-05
3 *60:B1 0
4 *48:B1 5.2724e-05
5 *46:Y 8.69066e-05
6 *17:32 0.000341954
7 *17:16 0.000237873
8 *17:10 0.000346521
9 *48:B1 *48:A2 3.83041e-05
10 *48:B1 *60:A1 9.78003e-05
11 *48:B1 *18:20 0.000107073
12 *54:B1 *64:A3 3.33803e-05
13 *54:B1 *65:B 8.7373e-06
14 *54:B1 *18:8 5.78726e-05
15 *66:B1 *49:A1 0
16 *66:B1 *54:A1 8.7152e-06
17 *66:B1 *65:C 0
18 *66:B1 *66:A2 0.000120888
19 *66:B1 *66:A3 1.90762e-05
20 *66:B1 *43:8 7.90179e-05
21 *17:10 *54:A1 0.00013994
22 *17:10 *55:A3 4.38278e-05
23 *17:10 *55:B1 2.97004e-06
24 *17:10 *72:A 0.000119756
25 *17:10 *30:16 0
26 *17:16 *55:A3 1.19928e-05
27 *17:16 *60:A1 6.181e-05
28 *17:16 *61:B1 0.000163204
29 *17:16 *63:B 0.000193763
30 *17:16 *65:A 0.000150653
31 *17:16 *72:A 0
32 *17:16 *18:20 8.56827e-05
33 *17:16 *37:35 0.000267851
34 *17:32 *54:A1 0.000182586
35 *17:32 *55:B1 4.70174e-05
36 *17:32 *65:B 1.52342e-05
37 *17:32 *30:16 0
38 *17:32 *43:8 2.0851e-06
39 *66:A1 *66:B1 2.92834e-05
40 *71:A *17:10 5.66282e-05
41 *15:21 *17:16 0.00015639
*RES
1 *46:Y *17:10 6.375 
2 *17:10 *17:16 8.675 
3 *17:16 *48:B1 3.445 
4 *17:16 *60:B1 1.6 
5 *17:10 *17:32 2.145 
6 *17:32 *54:B1 4.91625 
7 *17:32 *66:B1 7.5 
*END

*D_NET *18 0.00297168
*CONN
*I *54:A2 I *D sky130_fd_sc_hd__a21o_1
*I *48:A2 I *D sky130_fd_sc_hd__a21oi_1
*I *60:A2 I *D sky130_fd_sc_hd__a21oi_1
*I *47:Y O *D sky130_fd_sc_hd__nor2_1
*CAP
1 *54:A2 0
2 *48:A2 8.22047e-05
3 *60:A2 0
4 *47:Y 0.000170024
5 *18:20 0.000442569
6 *18:8 0.000530387
7 *48:A2 *40:8 0
8 *18:8 *64:A1 4.60584e-05
9 *18:8 *64:A3 3.63051e-05
10 *18:8 *64:B1 0.000237243
11 *18:8 *65:C 4.87465e-06
12 *18:8 *66:A2 0.000198051
13 *18:8 *66:A3 1.33293e-05
14 *18:8 *37:10 3.00381e-05
15 *18:20 *54:A1 0.000140448
16 *18:20 *61:B1 0.000163204
17 *18:20 *63:A_N 0.000138788
18 *18:20 *64:A3 4.23703e-05
19 *18:20 *65:A 0.000163076
20 *18:20 *65:B 0
21 *18:20 *65:C 0
22 *18:20 *65:D 1.13785e-05
23 *18:20 *37:35 0.000193801
24 *48:B1 *48:A2 3.83041e-05
25 *48:B1 *18:20 0.000107073
26 *54:B1 *18:8 5.78726e-05
27 *67:D *18:20 0
28 *70:D *18:8 3.85943e-05
29 *17:16 *18:20 8.56827e-05
*RES
1 *47:Y *18:8 6.895 
2 *18:8 *18:20 13.27 
3 *18:20 *60:A2 1.6 
4 *18:20 *48:A2 3.085 
5 *18:8 *54:A2 1.6 
*END

*D_NET *19 0.00135628
*CONN
*I *49:B1 I *D sky130_fd_sc_hd__o21ai_1
*I *48:Y O *D sky130_fd_sc_hd__a21oi_1
*CAP
1 *49:B1 0.000220712
2 *48:Y 0.000220712
3 *49:B1 *49:A1 0.000574601
4 *49:B1 *69:CLK 0
5 *49:B1 *36:10 9.29176e-05
6 *49:B1 *40:10 4.58406e-05
7 *67:D *49:B1 0.000201503
*RES
1 *48:Y *49:B1 14.775 
*END

*D_NET *20 0.000465836
*CONN
*I *52:B I *D sky130_fd_sc_hd__nand2_1
*I *51:B I *D sky130_fd_sc_hd__or2_1
*I *50:X O *D sky130_fd_sc_hd__xor2_1
*CAP
1 *52:B 4.83595e-05
2 *51:B 0
3 *50:X 4.0183e-05
4 *20:8 8.85425e-05
5 *52:B *50:B 4.05674e-06
6 *52:B *57:A 9.72742e-06
7 *52:B *21:18 4.99619e-05
8 *52:B *39:10 3.78729e-05
9 *52:B *39:12 4.00541e-06
10 *52:B *39:36 8.56308e-05
11 *52:B *41:19 4.4675e-05
12 *20:8 *50:B 1.7386e-05
13 *20:8 *39:10 2.57074e-05
14 *20:8 *39:12 9.72742e-06
*RES
1 *50:X *20:8 2.665 
2 *20:8 *51:B 1.6 
3 *20:8 *52:B 3.79 
*END

*D_NET *21 0.00110018
*CONN
*I *59:A I *D sky130_fd_sc_hd__xnor2_1
*I *53:A I *D sky130_fd_sc_hd__nand2_1
*I *51:X O *D sky130_fd_sc_hd__or2_1
*CAP
1 *59:A 0
2 *53:A 9.3473e-05
3 *51:X 0.000170982
4 *21:18 0.000264455
5 *53:A *53:B 0.000106622
6 *53:A *61:A2 3.46842e-05
7 *53:A *61:B1 0
8 *53:A *39:40 5.98004e-06
9 *53:A *42:39 0
10 *21:18 *53:B 0
11 *21:18 *54:A1 3.09233e-05
12 *21:18 *58:B 0
13 *21:18 *62:A1 3.98127e-05
14 *21:18 *62:A2 0
15 *21:18 *62:B1 0.00011529
16 *21:18 *30:16 9.60582e-07
17 *21:18 *39:40 0.00013994
18 *21:18 *41:19 1.83756e-05
19 *21:18 *41:23 1.08758e-05
20 *21:18 *41:45 8.34281e-06
21 *46:A *53:A 9.50342e-06
22 *52:B *21:18 4.99619e-05
23 *61:A1 *53:A 0
*RES
1 *51:X *21:18 9.635 
2 *21:18 *53:A 8 
3 *21:18 *59:A 1.6 
*END

*D_NET *22 0.000903338
*CONN
*I *53:B I *D sky130_fd_sc_hd__nand2_1
*I *52:Y O *D sky130_fd_sc_hd__nand2_1
*CAP
1 *53:B 0.000175159
2 *52:Y 0.000175159
3 *53:B *57:B 4.39656e-05
4 *53:B *59:B 0
5 *53:B *62:B1 0
6 *53:B *69:CLK 0
7 *53:B *72:A 9.27495e-05
8 *53:B *26:10 7.21296e-06
9 *53:B *39:40 0.00030247
10 *53:A *53:B 0.000106622
11 *69:D *53:B 0
12 *21:18 *53:B 0
*RES
1 *52:Y *53:B 12.465 
*END

*D_NET *23 0.00098561
*CONN
*I *55:A3 I *D sky130_fd_sc_hd__a31o_1
*I *53:Y O *D sky130_fd_sc_hd__nand2_1
*CAP
1 *55:A3 0.000272033
2 *53:Y 0.000272033
3 *55:A3 *72:A 3.38041e-05
4 *55:A3 *30:16 0
5 *55:A3 *37:26 1.33293e-05
6 *46:A *55:A3 7.70758e-05
7 *61:A1 *55:A3 0
8 *15:21 *55:A3 0.000261514
9 *17:10 *55:A3 4.38278e-05
10 *17:16 *55:A3 1.19928e-05
*RES
1 *53:Y *55:A3 13.62 
*END

*D_NET *24 0.000456251
*CONN
*I *55:B1 I *D sky130_fd_sc_hd__a31o_1
*I *54:X O *D sky130_fd_sc_hd__a21o_1
*CAP
1 *55:B1 7.73995e-05
2 *54:X 7.73995e-05
3 *55:B1 *30:16 0
4 *55:B1 *37:35 0.000124895
5 *15:21 *55:B1 0.00012657
6 *17:10 *55:B1 2.97004e-06
7 *17:32 *55:B1 4.70174e-05
*RES
1 *54:X *55:B1 9.72 
*END

*D_NET *25 8.1785e-05
*CONN
*I *58:A I *D sky130_fd_sc_hd__nand2_1
*I *56:X O *D sky130_fd_sc_hd__a21o_1
*CAP
1 *58:A 1.59115e-05
2 *56:X 1.59115e-05
3 *58:A *41:62 4.99619e-05
4 *69:D *58:A 0
*RES
1 *56:X *58:A 3.65 
*END

*D_NET *26 0.000964104
*CONN
*I *58:B I *D sky130_fd_sc_hd__nand2_1
*I *62:B1 I *D sky130_fd_sc_hd__o31ai_1
*I *57:Y O *D sky130_fd_sc_hd__nand3_1
*CAP
1 *58:B 4.48215e-05
2 *62:B1 5.69399e-05
3 *57:Y 4.83716e-05
4 *26:10 0.000150133
5 *58:B *59:B 9.66106e-05
6 *58:B *41:62 0.000161863
7 *58:B *42:22 0
8 *62:B1 *59:B 5.83121e-06
9 *62:B1 *41:23 3.26889e-05
10 *62:B1 *41:45 0.000120655
11 *62:B1 *41:62 4.66108e-05
12 *26:10 *57:B 7.70758e-05
13 *26:10 *57:C 0
14 *53:B *62:B1 0
15 *53:B *26:10 7.21296e-06
16 *21:18 *58:B 0
17 *21:18 *62:B1 0.00011529
*RES
1 *57:Y *26:10 6.725 
2 *26:10 *62:B1 3.445 
3 *26:10 *58:B 3.445 
*END

*D_NET *27 0.000272304
*CONN
*I *59:B I *D sky130_fd_sc_hd__xnor2_1
*I *58:Y O *D sky130_fd_sc_hd__nand2_1
*CAP
1 *59:B 6.74343e-05
2 *58:Y 6.74343e-05
3 *59:B *61:A2 1.67266e-05
4 *59:B *72:A 0
5 *59:B *41:62 1.82667e-05
6 *53:B *59:B 0
7 *58:B *59:B 9.66106e-05
8 *62:B1 *59:B 5.83121e-06
*RES
1 *58:Y *59:B 5.03 
*END

*D_NET *28 0.000248182
*CONN
*I *61:A2 I *D sky130_fd_sc_hd__o21ai_1
*I *59:Y O *D sky130_fd_sc_hd__xnor2_1
*CAP
1 *61:A2 7.78568e-05
2 *59:Y 7.78568e-05
3 *61:A2 *72:A 4.10576e-05
4 *61:A2 *42:39 0
5 *53:A *61:A2 3.46842e-05
6 *59:B *61:A2 1.67266e-05
*RES
1 *59:Y *61:A2 9.21 
*END

*D_NET *29 0.00100276
*CONN
*I *61:B1 I *D sky130_fd_sc_hd__o21ai_1
*I *60:Y O *D sky130_fd_sc_hd__a21oi_1
*CAP
1 *61:B1 0.000155591
2 *60:Y 0.000155591
3 *61:B1 *69:CLK 0.000189433
4 *61:B1 *40:10 0
5 *61:B1 *42:39 0.000175733
6 *53:A *61:B1 0
7 *61:A1 *61:B1 0
8 *17:16 *61:B1 0.000163204
9 *18:20 *61:B1 0.000163204
*RES
1 *60:Y *61:B1 12.15 
*END

*D_NET *30 0.00271757
*CONN
*I *65:C I *D sky130_fd_sc_hd__nand4_1
*I *64:A2 I *D sky130_fd_sc_hd__a31o_1
*I *62:Y O *D sky130_fd_sc_hd__o31ai_1
*CAP
1 *65:C 0.000484439
2 *64:A2 0
3 *62:Y 0.000461684
4 *30:16 0.000946123
5 *65:C *63:B 5.82635e-05
6 *65:C *64:A3 8.88288e-06
7 *65:C *65:B 0.000297803
8 *65:C *65:D 3.83194e-05
9 *65:C *66:A2 2.97004e-06
10 *65:C *66:A3 3.95409e-05
11 *30:16 *54:A1 7.70758e-05
12 *30:16 *62:A2 1.41956e-05
13 *30:16 *65:B 0
14 *30:16 *72:A 2.31229e-05
15 *30:16 *39:40 7.70758e-05
16 *30:16 *41:19 0
17 *55:A3 *30:16 0
18 *55:B1 *30:16 0
19 *66:B1 *65:C 0
20 *68:D *30:16 0
21 *71:A *65:C 0
22 *71:A *30:16 0
23 *15:12 *30:16 0.000142301
24 *15:38 *65:C 3.99395e-05
25 *17:10 *30:16 0
26 *17:32 *30:16 0
27 *18:8 *65:C 4.87465e-06
28 *18:20 *65:C 0
29 *21:18 *30:16 9.60582e-07
*RES
1 *62:Y *30:16 16.03 
2 *30:16 *64:A2 3.6 
3 *30:16 *65:C 8.44393 
*END

*D_NET *31 0.000957591
*CONN
*I *65:D I *D sky130_fd_sc_hd__nand4_1
*I *64:A3 I *D sky130_fd_sc_hd__a31o_1
*I *63:Y O *D sky130_fd_sc_hd__nand2b_1
*CAP
1 *65:D 0.000100797
2 *64:A3 0.000202263
3 *63:Y 0
4 *31:4 0.000303061
5 *64:A3 *47:A 0
6 *64:A3 *63:B 3.91069e-06
7 *64:A3 *64:B1 7.60965e-05
8 *64:A3 *66:A3 0
9 *64:A3 *37:35 5.42154e-05
10 *65:D *63:B 4.66108e-05
11 *54:B1 *64:A3 3.33803e-05
12 *65:C *64:A3 8.88288e-06
13 *65:C *65:D 3.83194e-05
14 *18:8 *64:A3 3.63051e-05
15 *18:20 *64:A3 4.23703e-05
16 *18:20 *65:D 1.13785e-05
*RES
1 *63:Y *31:4 1.6 
2 *31:4 *64:A3 6.325 
3 *31:4 *65:D 3.715 
*END

*D_NET *32 0.000600809
*CONN
*I *66:A2 I *D sky130_fd_sc_hd__a31o_1
*I *64:X O *D sky130_fd_sc_hd__a31o_1
*CAP
1 *66:A2 0.000118564
2 *64:X 0.000118564
3 *66:A2 *66:A3 1.56428e-05
4 *65:C *66:A2 2.97004e-06
5 *66:B1 *66:A2 0.000120888
6 *70:D *66:A2 2.61299e-05
7 *15:38 *66:A2 0
8 *18:8 *66:A2 0.000198051
*RES
1 *64:X *66:A2 10.41 
*END

*D_NET *33 0.0010255
*CONN
*I *66:A3 I *D sky130_fd_sc_hd__a31o_1
*I *65:Y O *D sky130_fd_sc_hd__nand4_1
*CAP
1 *66:A3 0.000204434
2 *65:Y 0.000204434
3 *66:A3 *45:A 4.39686e-05
4 *66:A3 *65:B 9.77137e-05
5 *61:A1 *66:A3 0.000164679
6 *64:A3 *66:A3 0
7 *65:C *66:A3 3.95409e-05
8 *66:A1 *66:A3 8.17874e-05
9 *66:A2 *66:A3 1.56428e-05
10 *66:B1 *66:A3 1.90762e-05
11 *70:D *66:A3 1.85674e-05
12 *16:8 *66:A3 0.000122331
13 *18:8 *66:A3 1.33293e-05
*RES
1 *65:Y *66:A3 12.915 
*END

*D_NET *34 0.00176662
*CONN
*I *73:A I *D sky130_fd_sc_hd__clkbuf_16
*I *72:A I *D sky130_fd_sc_hd__clkbuf_16
*I *71:X O *D sky130_fd_sc_hd__clkbuf_16
*CAP
1 *73:A 9.40554e-05
2 *72:A 0.000215783
3 *71:X 0
4 *34:6 0.000309839
5 *72:A *63:B 2.8768e-05
6 *72:A *69:CLK 0.000100162
7 *73:A *65:A 0.000142294
8 *73:A *69:CLK 0.000253963
9 *73:A *36:10 0.000115399
10 *53:B *72:A 9.27495e-05
11 *55:A3 *72:A 3.38041e-05
12 *59:B *72:A 0
13 *61:A1 *72:A 5.74095e-05
14 *61:A1 *73:A 0.000133529
15 *61:A2 *72:A 4.10576e-05
16 *67:D *73:A 0
17 *69:D *72:A 4.9253e-06
18 *17:10 *72:A 0.000119756
19 *17:16 *72:A 0
20 *30:16 *72:A 2.31229e-05
*RES
1 *71:X *34:6 3.6 
2 *34:6 *72:A 9.315 
3 *34:6 *73:A 8.04 
*END

*D_NET *35 0.00122091
*CONN
*I *70:CLK I *D sky130_fd_sc_hd__dfxtp_1
*I *68:CLK I *D sky130_fd_sc_hd__dfxtp_1
*I *72:X O *D sky130_fd_sc_hd__clkbuf_16
*CAP
1 *70:CLK 0.000386745
2 *68:CLK 0.000167287
3 *72:X 0
4 *35:6 0.000554031
5 *68:CLK *39:10 0
6 *68:D *68:CLK 0
7 *68:D *70:CLK 0
8 *74:A *70:CLK 4.97067e-05
9 *75:A *70:CLK 6.31427e-05
10 *15:12 *70:CLK 0
*RES
1 *72:X *35:6 3.6 
2 *35:6 *68:CLK 6.45 
3 *35:6 *70:CLK 9.57 
*END

*D_NET *36 0.00173804
*CONN
*I *67:CLK I *D sky130_fd_sc_hd__dfxtp_1
*I *69:CLK I *D sky130_fd_sc_hd__dfxtp_1
*I *73:X O *D sky130_fd_sc_hd__clkbuf_16
*CAP
1 *67:CLK 0
2 *69:CLK 0.00015075
3 *73:X 0.000252971
4 *36:10 0.00040372
5 *69:CLK *63:B 0
6 *36:10 *49:A1 2.20732e-05
7 *36:10 *40:8 0
8 *49:B1 *69:CLK 0
9 *49:B1 *36:10 9.29176e-05
10 *53:B *69:CLK 0
11 *61:B1 *69:CLK 0.000189433
12 *67:D *36:10 0.000117336
13 *69:D *69:CLK 3.93206e-05
14 *72:A *69:CLK 0.000100162
15 *73:A *69:CLK 0.000253963
16 *73:A *36:10 0.000115399
*RES
1 *73:X *36:10 9.57 
2 *36:10 *69:CLK 8.34 
3 *36:10 *67:CLK 3.6 
*END

*D_NET *37 0.00380345
*CONN
*I *65:A I *D sky130_fd_sc_hd__nand4_1
*I *45:A I *D sky130_fd_sc_hd__nand2_1
*I *55:A1 I *D sky130_fd_sc_hd__a31o_1
*I *64:A1 I *D sky130_fd_sc_hd__a31o_1
*I *47:A I *D sky130_fd_sc_hd__nor2_1
*I *74:X O *D sky130_fd_sc_hd__buf_1
*CAP
1 *65:A 9.27311e-05
2 *45:A 0.000102439
3 *55:A1 2.08101e-05
4 *64:A1 2.14037e-05
5 *47:A 1.77753e-05
6 *74:X 3.0665e-05
7 *37:35 0.000349886
8 *37:26 0.000337843
9 *37:10 0.000167837
10 *37:6 0.00032164
11 *45:A *63:B 0.00015967
12 *45:A *65:B 8.37447e-05
13 *47:A *38:8 0
14 *64:A1 *64:B1 4.99619e-05
15 *37:6 *38:8 0
16 *37:10 *47:B 0.000114912
17 *37:10 *38:8 4.99619e-05
18 *37:35 *64:B1 0
19 *55:A3 *37:26 1.33293e-05
20 *55:B1 *37:35 0.000124895
21 *61:A1 *45:A 6.147e-05
22 *61:A1 *65:A 0.000143961
23 *64:A3 *47:A 0
24 *64:A3 *37:35 5.42154e-05
25 *66:A3 *45:A 4.39686e-05
26 *70:D *37:10 0
27 *73:A *65:A 0.000142294
28 *15:12 *64:A1 6.6564e-05
29 *15:12 *37:10 9.91257e-05
30 *15:12 *37:26 9.43648e-05
31 *15:21 *37:26 2.49909e-05
32 *15:21 *37:35 7.54156e-05
33 *15:38 *45:A 8.6099e-05
34 *17:16 *65:A 0.000150653
35 *17:16 *37:35 0.000267851
36 *18:8 *64:A1 4.60584e-05
37 *18:8 *37:10 3.00381e-05
38 *18:20 *65:A 0.000163076
39 *18:20 *37:35 0.000193801
*RES
1 *74:X *37:6 2.05 
2 *37:6 *37:10 3.81 
3 *37:10 *47:A 1.96 
4 *37:10 *64:A1 2.74 
5 *37:6 *37:26 3.555 
6 *37:26 *55:A1 1.96 
7 *37:26 *37:35 4.935 
8 *37:35 *45:A 9.275 
9 *37:35 *65:A 9.17 
*END

*D_NET *38 0.000396252
*CONN
*I *47:B I *D sky130_fd_sc_hd__nor2_1
*I *44:A I *D sky130_fd_sc_hd__inv_2
*I *75:X O *D sky130_fd_sc_hd__buf_1
*CAP
1 *47:B 3.96313e-05
2 *44:A 0
3 *75:X 7.60575e-05
4 *38:8 0.000115689
5 *47:A *38:8 0
6 *70:D *47:B 0
7 *37:6 *38:8 0
8 *37:10 *47:B 0.000114912
9 *37:10 *38:8 4.99619e-05
*RES
1 *75:X *38:8 3.01 
2 *38:8 *44:A 1.6 
3 *38:8 *47:B 2.74 
*END

*D_NET *39 0.00328146
*CONN
*I *52:A I *D sky130_fd_sc_hd__nand2_1
*I *63:A_N I *D sky130_fd_sc_hd__nand2b_1
*I *46:B I *D sky130_fd_sc_hd__nor2_1
*I *51:A I *D sky130_fd_sc_hd__or2_1
*I *62:A1 I *D sky130_fd_sc_hd__o31ai_1
*I *76:X O *D sky130_fd_sc_hd__buf_1
*CAP
1 *52:A 1.66773e-05
2 *63:A_N 0.000147193
3 *46:B 0
4 *51:A 0
5 *62:A1 0.000117712
6 *76:X 0.000272183
7 *39:40 0.000243666
8 *39:36 0.000152984
9 *39:12 0.000129618
10 *39:10 0.000323923
11 *52:A *40:32 1.61831e-05
12 *52:A *41:45 5.36384e-06
13 *62:A1 *50:B 0
14 *62:A1 *62:A2 3.70488e-05
15 *62:A1 *41:19 4.82863e-05
16 *62:A1 *41:23 0
17 *63:A_N *54:A1 0.000117796
18 *39:10 *50:B 0
19 *39:10 *62:A2 0
20 *39:10 *40:32 0.000270479
21 *39:36 *57:A 5.4155e-06
22 *39:36 *40:32 9.21168e-05
23 *39:36 *41:45 0
24 *39:40 *54:A1 7.93107e-05
25 *39:40 *57:B 1.82563e-05
26 *46:A *63:A_N 0.000157503
27 *46:A *39:40 5.53249e-06
28 *52:B *39:10 3.78729e-05
29 *52:B *39:12 4.00541e-06
30 *52:B *39:36 8.56308e-05
31 *53:A *39:40 5.98004e-06
32 *53:B *39:40 0.00030247
33 *68:CLK *39:10 0
34 *68:D *39:10 0
35 *15:38 *63:A_N 0.000157206
36 *18:20 *63:A_N 0.000138788
37 *20:8 *39:10 2.57074e-05
38 *20:8 *39:12 9.72742e-06
39 *21:18 *62:A1 3.98127e-05
40 *21:18 *39:40 0.00013994
41 *30:16 *39:40 7.70758e-05
*RES
1 *76:X *39:10 7.69 
2 *39:10 *39:12 0.36 
3 *39:12 *62:A1 8.045 
4 *39:12 *51:A 1.6 
5 *39:10 *39:36 1.845 
6 *39:36 *39:40 6.185 
7 *39:40 *46:B 3.6 
8 *39:40 *63:A_N 8.34 
9 *39:36 *52:A 2.05 
*END

*D_NET *40 0.00566318
*CONN
*I *77:A I *D sky130_fd_sc_hd__buf_1
*I *49:A1 I *D sky130_fd_sc_hd__o21ai_1
*I *48:A1 I *D sky130_fd_sc_hd__a21oi_1
*I *56:A1 I *D sky130_fd_sc_hd__a21o_1
*I *57:A I *D sky130_fd_sc_hd__nand3_1
*I *62:A2 I *D sky130_fd_sc_hd__o31ai_1
*I *50:A I *D sky130_fd_sc_hd__xor2_1
*I *67:Q O *D sky130_fd_sc_hd__dfxtp_1
*CAP
1 *77:A 7.32689e-05
2 *49:A1 0.000389111
3 *48:A1 0
4 *56:A1 0
5 *57:A 3.38485e-05
6 *62:A2 0.000214518
7 *50:A 0
8 *67:Q 0
9 *40:32 0.000516688
10 *40:24 0.000552674
11 *40:16 0.000532835
12 *40:10 0.000425343
13 *40:8 0.000586894
14 *40:4 0.000161889
15 *57:A *41:45 1.4389e-05
16 *57:A *41:62 1.17409e-05
17 *62:A2 *50:B 0.000221513
18 *62:A2 *41:19 2.49099e-05
19 *40:10 *42:39 0
20 *40:16 *57:C 0
21 *40:16 *78:A 0.000228149
22 *40:16 *41:62 4.82919e-05
23 *40:16 *42:14 6.31066e-05
24 *40:16 *42:39 0
25 *40:24 *57:C 0.0003755
26 *40:24 *41:62 3.52139e-06
27 *40:32 *50:B 3.25831e-05
28 *40:32 *41:45 0
29 counter[0] *40:10 0
30 counter[1] *40:16 0
31 *48:A2 *40:8 0
32 *49:B1 *49:A1 0.000574601
33 *49:B1 *40:10 4.58406e-05
34 *52:A *40:32 1.61831e-05
35 *52:B *57:A 9.72742e-06
36 *61:A1 *49:A1 3.21634e-05
37 *61:B1 *40:10 0
38 *62:A1 *62:A2 3.70488e-05
39 *66:A1 *49:A1 0
40 *66:B1 *49:A1 0
41 *16:8 *49:A1 3.25635e-05
42 *21:18 *62:A2 0
43 *30:16 *62:A2 1.41956e-05
44 *36:10 *49:A1 2.20732e-05
45 *36:10 *40:8 0
46 *39:10 *62:A2 0
47 *39:10 *40:32 0.000270479
48 *39:36 *57:A 5.4155e-06
49 *39:36 *40:32 9.21168e-05
*RES
1 *67:Q *40:4 1.6 
2 *40:4 *40:8 3.485 
3 *40:8 *40:10 2.145 
4 *40:10 *40:16 8.705 
5 *40:16 *40:24 9.28 
6 *40:24 *40:32 9.02 
7 *40:32 *50:A 3.6 
8 *40:32 *62:A2 8.7525 
9 *40:24 *57:A 3.115 
10 *40:16 *56:A1 1.6 
11 *40:10 *48:A1 3.6 
12 *40:8 *49:A1 13.215 
13 *40:4 *77:A 2.92 
*END

*D_NET *41 0.00437818
*CONN
*I *78:A I *D sky130_fd_sc_hd__buf_1
*I *56:A2 I *D sky130_fd_sc_hd__a21o_1
*I *57:B I *D sky130_fd_sc_hd__nand3_1
*I *62:A3 I *D sky130_fd_sc_hd__o31ai_1
*I *54:A1 I *D sky130_fd_sc_hd__a21o_1
*I *50:B I *D sky130_fd_sc_hd__xor2_1
*I *68:Q O *D sky130_fd_sc_hd__dfxtp_1
*CAP
1 *78:A 0.000140243
2 *56:A2 1.38229e-05
3 *57:B 5.59258e-05
4 *62:A3 0
5 *54:A1 0.000231901
6 *50:B 0.000116516
7 *68:Q 0
8 *41:62 0.000321495
9 *41:45 0.000280774
10 *41:23 0.000278461
11 *41:19 0.00016204
12 *41:4 0.000174577
13 *56:A2 *42:22 1.35397e-05
14 *57:B *57:C 0
15 *78:A *42:14 4.16349e-05
16 *78:A *42:22 0.000296922
17 *41:62 *57:C 7.6379e-05
18 *41:62 *42:22 7.35813e-05
19 *52:A *41:45 5.36384e-06
20 *52:B *50:B 4.05674e-06
21 *52:B *41:19 4.4675e-05
22 *53:B *57:B 4.39656e-05
23 *57:A *41:45 1.4389e-05
24 *57:A *41:62 1.17409e-05
25 *58:A *41:62 4.99619e-05
26 *58:B *41:62 0.000161863
27 *59:B *41:62 1.82667e-05
28 *62:A1 *50:B 0
29 *62:A1 *41:19 4.82863e-05
30 *62:A1 *41:23 0
31 *62:A2 *50:B 0.000221513
32 *62:A2 *41:19 2.49099e-05
33 *62:B1 *41:23 3.26889e-05
34 *62:B1 *41:45 0.000120655
35 *62:B1 *41:62 4.66108e-05
36 *63:A_N *54:A1 0.000117796
37 *66:B1 *54:A1 8.7152e-06
38 *69:D *41:62 0
39 *71:A *54:A1 1.17701e-05
40 *17:10 *54:A1 0.00013994
41 *17:32 *54:A1 0.000182586
42 *18:20 *54:A1 0.000140448
43 *20:8 *50:B 1.7386e-05
44 *21:18 *54:A1 3.09233e-05
45 *21:18 *41:19 1.83756e-05
46 *21:18 *41:23 1.08758e-05
47 *21:18 *41:45 8.34281e-06
48 *26:10 *57:B 7.70758e-05
49 *30:16 *54:A1 7.70758e-05
50 *30:16 *41:19 0
51 *39:10 *50:B 0
52 *39:36 *41:45 0
53 *39:40 *54:A1 7.93107e-05
54 *39:40 *57:B 1.82563e-05
55 *40:16 *78:A 0.000228149
56 *40:16 *41:62 4.82919e-05
57 *40:24 *41:62 3.52139e-06
58 *40:32 *50:B 3.25831e-05
59 *40:32 *41:45 0
*RES
1 *68:Q *41:4 1.6 
2 *41:4 *50:B 8.72 
3 *41:4 *41:19 1.83 
4 *41:19 *41:23 1.065 
5 *41:23 *54:A1 12.635 
6 *41:23 *62:A3 1.6 
7 *41:19 *41:45 1.485 
8 *41:45 *57:B 6.98 
9 *41:45 *41:62 5.055 
10 *41:62 *56:A2 1.96 
11 *41:62 *78:A 5.86 
*END

*D_NET *42 0.00400204
*CONN
*I *79:A I *D sky130_fd_sc_hd__buf_1
*I *56:B1 I *D sky130_fd_sc_hd__a21o_1
*I *60:A1 I *D sky130_fd_sc_hd__a21oi_1
*I *63:B I *D sky130_fd_sc_hd__nand2b_1
*I *57:C I *D sky130_fd_sc_hd__nand3_1
*I *69:Q O *D sky130_fd_sc_hd__dfxtp_1
*CAP
1 *79:A 0
2 *56:B1 0
3 *60:A1 8.79463e-05
4 *63:B 0.000255273
5 *57:C 0.000156051
6 *69:Q 0.00013815
7 *42:39 0.000558138
8 *42:24 0.00037097
9 *42:22 0.000184106
10 *42:14 0.000322256
11 counter[1] *42:14 0
12 *45:A *63:B 0.00015967
13 *46:A *63:B 1.70935e-05
14 *48:B1 *60:A1 9.78003e-05
15 *53:A *42:39 0
16 *56:A2 *42:22 1.35397e-05
17 *57:B *57:C 0
18 *58:B *42:22 0
19 *61:A1 *63:B 0
20 *61:A2 *42:39 0
21 *61:B1 *42:39 0.000175733
22 *64:A3 *63:B 3.91069e-06
23 *65:C *63:B 5.82635e-05
24 *65:D *63:B 4.66108e-05
25 *69:CLK *63:B 0
26 *69:D *60:A1 4.40174e-07
27 *69:D *63:B 0
28 *69:D *42:22 0
29 *72:A *63:B 2.8768e-05
30 *78:A *42:14 4.16349e-05
31 *78:A *42:22 0.000296922
32 *15:38 *63:B 0.00014462
33 *17:16 *60:A1 6.181e-05
34 *17:16 *63:B 0.000193763
35 *26:10 *57:C 0
36 *40:10 *42:39 0
37 *40:16 *57:C 0
38 *40:16 *42:14 6.31066e-05
39 *40:16 *42:39 0
40 *40:24 *57:C 0.0003755
41 *41:62 *57:C 7.6379e-05
42 *41:62 *42:22 7.35813e-05
*RES
1 *69:Q *42:14 8.51 
2 *42:14 *42:22 4.695 
3 *42:22 *42:24 2 
4 *42:24 *57:C 8.1 
5 *42:24 *42:39 5.93 
6 *42:39 *63:B 12.0275 
7 *42:39 *60:A1 3.895 
8 *42:22 *56:B1 1.6 
9 *42:14 *79:A 1.6 
*END

*D_NET *43 0.00309268
*CONN
*I *80:A I *D sky130_fd_sc_hd__buf_1
*I *64:B1 I *D sky130_fd_sc_hd__a31o_1
*I *65:B I *D sky130_fd_sc_hd__nand4_1
*I *70:Q O *D sky130_fd_sc_hd__dfxtp_1
*CAP
1 *80:A 0.000403169
2 *64:B1 5.81374e-05
3 *65:B 0.000474505
4 *70:Q 0
5 *43:8 0.000667773
6 *43:6 0.0005383
7 *45:A *65:B 8.37447e-05
8 *54:B1 *65:B 8.7373e-06
9 *61:A1 *65:B 3.1562e-06
10 *64:A1 *64:B1 4.99619e-05
11 *64:A3 *64:B1 7.60965e-05
12 *65:C *65:B 0.000297803
13 *66:A3 *65:B 9.77137e-05
14 *66:B1 *43:8 7.90179e-05
15 *70:D *80:A 0
16 *17:32 *65:B 1.52342e-05
17 *17:32 *43:8 2.0851e-06
18 *18:8 *64:B1 0.000237243
19 *18:20 *65:B 0
20 *30:16 *65:B 0
21 *37:35 *64:B1 0
*RES
1 *70:Q *43:6 3.6 
2 *43:6 *43:8 2.655 
3 *43:8 *65:B 7.95067 
4 *43:8 *64:B1 5.775 
5 *43:6 *80:A 10.515 
*END
