*SPEF "ieee 1481-1999"
*DESIGN "counter_dut"
*DATE "10:20:01 Wednesday December 04, 2024"
*VENDOR "The OpenROAD Project"
*PROGRAM "OpenROAD"
*VERSION "edf00dff99f6c40d67a30c0e22a8191c5d2ed9d6"
*DESIGN_FLOW "NAME_SCOPE LOCAL" "PIN_CAP NONE"
*DIVIDER /
*DELIMITER :
*BUS_DELIMITER []
*T_UNIT 1 NS
*C_UNIT 1 PF
*R_UNIT 1 OHM
*L_UNIT 1 HENRY

*NAME_MAP
*1 clk
*2 counter[0]
*3 counter[1]
*4 counter[2]
*5 counter[3]
*6 enable
*7 reset
*8 up_down
*11 _00_
*12 _01_
*13 _02_
*14 _03_
*15 _04_
*16 _05_
*17 _06_
*18 _07_
*19 _08_
*20 _09_
*21 _10_
*22 _11_
*23 _12_
*24 _13_
*25 _14_
*26 _15_
*27 _16_
*28 _17_
*29 _18_
*30 _19_
*31 _20_
*32 _21_
*33 _22_
*34 clknet_0_clk
*35 clknet_1_0__leaf_clk
*36 clknet_1_1__leaf_clk
*37 net1
*38 net2
*39 net3
*40 net4
*41 net5
*42 net6
*43 net7
*44 _23_
*45 _24_
*46 _25_
*47 _26_
*48 _27_
*49 _28_
*50 _29_
*51 _30_
*52 _31_
*53 _32_
*54 _33_
*55 _34_
*56 _35_
*57 _36_
*58 _37_
*59 _38_
*60 _39_
*61 _40_
*62 _41_
*63 _42_
*64 _43_
*65 _44_
*66 _45_
*67 _46_
*68 _47_
*69 _48_
*70 _49_
*71 clkbuf_0_clk
*72 clkbuf_1_0__f_clk
*73 clkbuf_1_1__f_clk
*74 input1
*75 input2
*76 input3
*77 output4
*78 output5
*79 output6
*80 output7

*PORTS
clk I
counter[0] O
counter[1] O
counter[2] O
counter[3] O
enable I
reset I
up_down I

*D_NET *1 0.00184564
*CONN
*P clk I
*I *71:A I *D sky130_fd_sc_hd__clkbuf_16
*CAP
1 clk 0.000792533
2 *71:A 0.000792533
3 *71:A *46:B 0.000138024
4 *71:A *54:A1 0
5 *71:A *74:A 5.65933e-05
6 *71:A *76:A 5.40137e-05
7 *71:A *15:35 1.19402e-05
*RES
1 clk *71:A 20.7938 
*END

*D_NET *2 0.000367992
*CONN
*P counter[0] O
*I *77:X O *D sky130_fd_sc_hd__buf_1
*CAP
1 counter[0] 0.000156986
2 *77:X 0.000156986
3 counter[0] counter[1] 5.40205e-05
*RES
1 *77:X counter[0] 18.5138 
*END

*D_NET *3 0.000486173
*CONN
*P counter[1] O
*I *78:X O *D sky130_fd_sc_hd__buf_1
*CAP
1 counter[1] 0.000187779
2 *78:X 0.000187779
3 counter[1] counter[2] 5.65933e-05
4 counter[1] *42:12 0
5 counter[0] counter[1] 5.40205e-05
*RES
1 *78:X counter[1] 19.7281 
*END

*D_NET *4 0.000510926
*CONN
*P counter[2] O
*I *79:X O *D sky130_fd_sc_hd__buf_1
*CAP
1 counter[2] 0.000227167
2 *79:X 0.000227167
3 counter[2] *40:29 0
4 counter[1] counter[2] 5.65933e-05
*RES
1 *79:X counter[2] 18.4264 
*END

*D_NET *5 0.000306255
*CONN
*P counter[3] O
*I *80:X O *D sky130_fd_sc_hd__buf_1
*CAP
1 counter[3] 0.000126121
2 *80:X 0.000126121
3 counter[3] *75:A 5.40137e-05
*RES
1 *80:X counter[3] 17.9067 
*END

*D_NET *6 0.000407652
*CONN
*P enable I
*I *74:A I *D sky130_fd_sc_hd__buf_1
*CAP
1 enable 0.000122703
2 *74:A 0.000122703
3 *74:A *70:CLK 5.16394e-05
4 *74:A *75:A 5.40137e-05
5 *71:A *74:A 5.65933e-05
*RES
1 enable *74:A 18.8174 
*END

*D_NET *7 0.000450383
*CONN
*P reset I
*I *75:A I *D sky130_fd_sc_hd__buf_1
*CAP
1 reset 0.000138307
2 *75:A 0.000138307
3 *75:A *70:CLK 6.57423e-05
4 counter[3] *75:A 5.40137e-05
5 *74:A *75:A 5.40137e-05
*RES
1 reset *75:A 19.1209 
*END

*D_NET *8 0.00048689
*CONN
*P up_down I
*I *76:A I *D sky130_fd_sc_hd__buf_1
*CAP
1 up_down 0.000216438
2 *76:A 0.000216438
3 *76:A *39:10 0
4 *71:A *76:A 5.40137e-05
*RES
1 up_down *76:A 19.7281 
*END

*D_NET *11 0.000567255
*CONN
*I *67:D I *D sky130_fd_sc_hd__dfxtp_1
*I *49:Y O *D sky130_fd_sc_hd__o21ai_1
*CAP
1 *67:D 0.000135073
2 *49:Y 0.000135073
3 *67:D *48:A1 0.000103323
4 *67:D *49:A2 0
5 *67:D *49:B1 2.09846e-05
6 *67:D *40:8 8.46829e-05
7 *67:D *40:19 8.81182e-05
*RES
1 *49:Y *67:D 31.3545 
*END

*D_NET *12 0.000729188
*CONN
*I *68:D I *D sky130_fd_sc_hd__dfxtp_1
*I *55:X O *D sky130_fd_sc_hd__a31o_1
*CAP
1 *68:D 0.000268419
2 *55:X 0.000268419
3 *68:D *55:A3 0.000192349
4 *68:D *63:A_N 0
5 *68:D *39:10 0
6 *68:D *39:14 0
*RES
1 *55:X *68:D 33.783 
*END

*D_NET *13 0.000576383
*CONN
*I *69:D I *D sky130_fd_sc_hd__dfxtp_1
*I *61:Y O *D sky130_fd_sc_hd__o21ai_1
*CAP
1 *69:D 0.000159714
2 *61:Y 0.000159714
3 *69:D *49:A2 0
4 *69:D *49:B1 0
5 *69:D *61:A1 0.000109789
6 *69:D *62:A2 3.17887e-05
7 *69:D *72:A 9.60875e-05
8 *69:D *17:38 0
9 *69:D *34:8 1.92905e-05
*RES
1 *61:Y *69:D 22.3679 
*END

*D_NET *14 0.000710905
*CONN
*I *70:D I *D sky130_fd_sc_hd__dfxtp_1
*I *66:X O *D sky130_fd_sc_hd__a31o_1
*CAP
1 *70:D 0.000305208
2 *66:X 0.000305208
3 *70:D *47:B 0
4 *70:D *54:B1 3.81416e-06
5 *70:D *66:A2 3.47258e-05
6 *70:D *66:B1 4.16984e-05
7 *70:D *80:A 0
8 *70:D *18:18 2.02508e-05
9 *70:D *31:12 0
10 *70:D *43:29 0
*RES
1 *66:X *70:D 24.533 
*END

*D_NET *15 0.00271409
*CONN
*I *46:A I *D sky130_fd_sc_hd__nor2_1
*I *45:B I *D sky130_fd_sc_hd__nand2_1
*I *66:A1 I *D sky130_fd_sc_hd__a31o_1
*I *55:A2 I *D sky130_fd_sc_hd__a31o_1
*I *44:Y O *D sky130_fd_sc_hd__inv_2
*CAP
1 *46:A 0
2 *45:B 4.18622e-05
3 *66:A1 0
4 *55:A2 0
5 *44:Y 0.00013811
6 *15:35 0.000417149
7 *15:19 0.000413274
8 *15:12 0.000176098
9 *45:B *66:A3 7.15074e-05
10 *45:B *66:B1 2.86953e-05
11 *15:12 *55:A3 1.02504e-05
12 *15:12 *64:A2 0.000153762
13 *15:12 *70:CLK 0
14 *15:12 *31:12 0.0003379
15 *15:12 *37:8 1.94048e-05
16 *15:12 *37:14 7.17189e-05
17 *15:12 *37:32 9.20581e-06
18 *15:19 *55:B1 0.00010096
19 *15:19 *63:B 9.31893e-05
20 *15:19 *37:32 5.33005e-05
21 *15:19 *37:45 1.5424e-05
22 *15:35 *45:A 0
23 *15:35 *46:B 0
24 *15:35 *54:A1 0.000107871
25 *15:35 *55:B1 2.44318e-05
26 *15:35 *63:B 5.52238e-05
27 *15:35 *64:A2 7.20318e-05
28 *15:35 *65:C 9.41918e-05
29 *15:35 *66:A2 0
30 *15:35 *66:A3 3.5678e-05
31 *15:35 *66:B1 6.26774e-06
32 *15:35 *18:18 2.09897e-05
33 *15:35 *18:24 7.6644e-05
34 *15:35 *37:45 5.70107e-05
35 *71:A *15:35 1.19402e-05
*RES
1 *44:Y *15:12 23.2464 
2 *15:12 *55:A2 9.3 
3 *15:12 *15:19 1.76786 
4 *15:19 *15:35 18.2902 
5 *15:35 *66:A1 9.3 
6 *15:35 *45:B 10.6527 
7 *15:19 *46:A 9.3 
*END

*D_NET *16 0.00215473
*CONN
*I *49:A2 I *D sky130_fd_sc_hd__o21ai_1
*I *61:A1 I *D sky130_fd_sc_hd__o21ai_1
*I *45:Y O *D sky130_fd_sc_hd__nand2_1
*CAP
1 *49:A2 0.000113559
2 *61:A1 0.000108173
3 *45:Y 0.000392539
4 *16:10 0.000614272
5 *49:A2 *49:A1 4.88637e-05
6 *49:A2 *49:B1 0.000120132
7 *49:A2 *40:8 0
8 *61:A1 *49:B1 1.76039e-05
9 *61:A1 *60:A1 0
10 *61:A1 *62:A2 3.18168e-05
11 *61:A1 *69:CLK 0.000205264
12 *61:A1 *40:19 5.90443e-06
13 *61:A1 *40:21 5.8955e-05
14 *16:10 *45:A 0
15 *16:10 *48:A1 0
16 *16:10 *49:B1 5.7616e-05
17 *16:10 *66:A3 9.85396e-06
18 *16:10 *69:CLK 0.000133404
19 *16:10 *73:A 1.00375e-05
20 *16:10 *36:10 7.99638e-05
21 *16:10 *40:19 3.69865e-05
22 *67:D *49:A2 0
23 *69:D *49:A2 0
24 *69:D *61:A1 0.000109789
*RES
1 *45:Y *16:10 22.9071 
2 *16:10 *61:A1 17.7286 
3 *16:10 *49:A2 16.3893 
*END

*D_NET *17 0.0038035
*CONN
*I *48:B1 I *D sky130_fd_sc_hd__a21oi_1
*I *60:B1 I *D sky130_fd_sc_hd__a21oi_1
*I *66:B1 I *D sky130_fd_sc_hd__a31o_1
*I *54:B1 I *D sky130_fd_sc_hd__a21o_1
*I *46:Y O *D sky130_fd_sc_hd__nor2_1
*CAP
1 *48:B1 9.27536e-05
2 *60:B1 0.000134811
3 *66:B1 0.000277235
4 *54:B1 8.30213e-05
5 *46:Y 0
6 *17:38 0.000425867
7 *17:10 0.000496608
8 *17:4 0.000334655
9 *48:B1 *45:A 0
10 *48:B1 *48:A1 5.33005e-05
11 *48:B1 *49:B1 3.69047e-06
12 *48:B1 *73:A 0.000156191
13 *48:B1 *37:45 0
14 *54:B1 *65:B 0
15 *54:B1 *65:D 2.44318e-05
16 *54:B1 *66:A2 9.60875e-05
17 *54:B1 *18:18 0.000137983
18 *60:B1 *60:A2 0
19 *60:B1 *61:B1 3.18676e-05
20 *60:B1 *62:A2 1.95646e-05
21 *60:B1 *69:CLK 6.8646e-06
22 *60:B1 *72:A 0.000204726
23 *60:B1 *73:A 0.000122754
24 *66:B1 *64:B1 0
25 *66:B1 *65:B 0.00011077
26 *66:B1 *66:A2 7.3237e-05
27 *66:B1 *66:A3 7.48301e-06
28 *66:B1 *43:29 0
29 *17:10 *55:B1 4.58192e-05
30 *17:10 *64:A2 7.30641e-05
31 *17:10 *64:B1 0
32 *17:10 *65:B 3.22243e-05
33 *17:10 *65:D 1.36681e-05
34 *17:10 *18:24 0
35 *17:10 *37:45 0.00014183
36 *17:38 *48:A1 0
37 *17:38 *48:A2 4.51611e-05
38 *17:38 *65:B 1.32552e-05
39 *17:38 *65:D 1.03968e-05
40 *17:38 *72:A 0
41 *17:38 *18:24 7.31032e-05
42 *17:38 *37:45 0.000380602
43 *45:B *66:B1 2.86953e-05
44 *69:D *17:38 0
45 *70:D *54:B1 3.81416e-06
46 *70:D *66:B1 4.16984e-05
47 *15:35 *66:B1 6.26774e-06
*RES
1 *46:Y *17:4 9.3 
2 *17:4 *17:10 8.10714 
3 *17:10 *54:B1 15.9964 
4 *17:10 *66:B1 20.1929 
5 *17:4 *17:38 9.96429 
6 *17:38 *60:B1 17.9071 
7 *17:38 *48:B1 16.2821 
*END

*D_NET *18 0.00271874
*CONN
*I *54:A2 I *D sky130_fd_sc_hd__a21o_1
*I *48:A2 I *D sky130_fd_sc_hd__a21oi_1
*I *60:A2 I *D sky130_fd_sc_hd__a21oi_1
*I *47:Y O *D sky130_fd_sc_hd__nor2_1
*CAP
1 *54:A2 2.04425e-05
2 *48:A2 0.000116537
3 *60:A2 0.000141165
4 *47:Y 0.000242044
5 *18:24 0.000385112
6 *18:18 0.000389897
7 *48:A2 *65:B 0
8 *48:A2 *66:A3 5.39629e-06
9 *54:A2 *54:A1 2.59355e-05
10 *54:A2 *65:D 5.33005e-05
11 *60:A2 *54:A1 0.000140288
12 *60:A2 *62:B1 1.02504e-05
13 *60:A2 *65:C 8.13599e-05
14 *60:A2 *37:45 0.000103974
15 *18:18 *47:A 6.29133e-05
16 *18:18 *64:A1 5.31902e-05
17 *18:18 *65:B 7.64507e-05
18 *18:18 *65:D 0.0001827
19 *18:18 *31:12 5.43251e-05
20 *18:24 *55:B1 0
21 *18:24 *65:B 0.00019933
22 *54:B1 *18:18 0.000137983
23 *60:B1 *60:A2 0
24 *70:D *18:18 2.02508e-05
25 *15:35 *18:18 2.09897e-05
26 *15:35 *18:24 7.6644e-05
27 *17:10 *18:24 0
28 *17:38 *48:A2 4.51611e-05
29 *17:38 *18:24 7.31032e-05
*RES
1 *47:Y *18:18 20.4964 
2 *18:18 *18:24 7.71429 
3 *18:24 *60:A2 22.3714 
4 *18:24 *48:A2 11.6929 
5 *18:18 *54:A2 14.3357 
*END

*D_NET *19 0.000799695
*CONN
*I *49:B1 I *D sky130_fd_sc_hd__o21ai_1
*I *48:Y O *D sky130_fd_sc_hd__a21oi_1
*CAP
1 *49:B1 0.000179795
2 *48:Y 0.000179795
3 *49:B1 *48:A1 3.59801e-05
4 *49:B1 *49:A1 5.52302e-05
5 *49:B1 *34:8 0
6 *49:B1 *40:19 0.000128868
7 *48:B1 *49:B1 3.69047e-06
8 *49:A2 *49:B1 0.000120132
9 *61:A1 *49:B1 1.76039e-05
10 *67:D *49:B1 2.09846e-05
11 *69:D *49:B1 0
12 *16:10 *49:B1 5.7616e-05
*RES
1 *48:Y *49:B1 32.3679 
*END

*D_NET *20 0.000651192
*CONN
*I *52:B I *D sky130_fd_sc_hd__nand2_1
*I *51:B I *D sky130_fd_sc_hd__or2_1
*I *50:X O *D sky130_fd_sc_hd__xor2_1
*CAP
1 *52:B 0
2 *51:B 6.83195e-05
3 *50:X 8.87419e-05
4 *20:10 0.000157061
5 *51:B *52:A 8.39096e-05
6 *51:B *53:A 5.48581e-05
7 *20:10 *50:A 5.23057e-05
8 *20:10 *50:B 2.47833e-05
9 *20:10 *53:B 5.59918e-05
10 *20:10 *55:A3 5.52238e-05
11 *20:10 *58:B 0
12 *20:10 *41:23 9.99644e-06
*RES
1 *50:X *20:10 12.2286 
2 *20:10 *51:B 20.2464 
3 *20:10 *52:B 9.3 
*END

*D_NET *21 0.00115488
*CONN
*I *59:A I *D sky130_fd_sc_hd__xnor2_1
*I *53:A I *D sky130_fd_sc_hd__nand2_1
*I *51:X O *D sky130_fd_sc_hd__or2_1
*CAP
1 *59:A 7.45127e-05
2 *53:A 0.000218481
3 *51:X 0
4 *21:4 0.000292993
5 *53:A *50:B 0.000124101
6 *53:A *55:A3 0
7 *53:A *62:A2 0
8 *53:A *63:B 0
9 *53:A *39:14 0
10 *53:A *39:31 0
11 *53:A *41:23 0.000120519
12 *59:A *62:A2 0
13 *59:A *41:23 1.54142e-05
14 *59:A *41:42 7.32272e-05
15 *59:A *42:24 0.00018077
16 *51:B *53:A 5.48581e-05
*RES
1 *51:X *21:4 9.3 
2 *21:4 *53:A 23.55 
3 *21:4 *59:A 11.4786 
*END

*D_NET *22 0.000226378
*CONN
*I *53:B I *D sky130_fd_sc_hd__nand2_1
*I *52:Y O *D sky130_fd_sc_hd__nand2_1
*CAP
1 *53:B 3.47131e-05
2 *52:Y 3.47131e-05
3 *53:B *50:A 0.00010096
4 *53:B *41:23 0
5 *20:10 *53:B 5.59918e-05
*RES
1 *52:Y *53:B 19.975 
*END

*D_NET *23 0.00110101
*CONN
*I *55:A3 I *D sky130_fd_sc_hd__a31o_1
*I *53:Y O *D sky130_fd_sc_hd__nand2_1
*CAP
1 *55:A3 0.000325458
2 *53:Y 0.000325458
3 *55:A3 *50:A 9.22103e-06
4 *55:A3 *50:B 0.000115796
5 *55:A3 *63:A_N 0
6 *55:A3 *63:B 0
7 *55:A3 *64:A2 6.7257e-05
8 *55:A3 *39:10 0
9 *55:A3 *39:31 0
10 *53:A *55:A3 0
11 *68:D *55:A3 0.000192349
12 *15:12 *55:A3 1.02504e-05
13 *20:10 *55:A3 5.52238e-05
*RES
1 *53:Y *55:A3 35.8679 
*END

*D_NET *24 0.000514626
*CONN
*I *55:B1 I *D sky130_fd_sc_hd__a31o_1
*I *54:X O *D sky130_fd_sc_hd__a21o_1
*CAP
1 *55:B1 0.000100283
2 *54:X 0.000100283
3 *55:B1 *64:A2 0
4 *55:B1 *37:45 0.00014285
5 *15:19 *55:B1 0.00010096
6 *15:35 *55:B1 2.44318e-05
7 *17:10 *55:B1 4.58192e-05
8 *18:24 *55:B1 0
*RES
1 *54:X *55:B1 30.6 
*END

*D_NET *25 0.000486664
*CONN
*I *58:A I *D sky130_fd_sc_hd__nand2_1
*I *56:X O *D sky130_fd_sc_hd__a21o_1
*CAP
1 *58:A 0.000142372
2 *56:X 0.000142372
3 *58:A *58:B 0
4 *58:A *40:29 0.00010096
5 *58:A *42:24 0.00010096
*RES
1 *56:X *58:A 22.1357 
*END

*D_NET *26 0.00101602
*CONN
*I *62:B1 I *D sky130_fd_sc_hd__o31ai_1
*I *58:B I *D sky130_fd_sc_hd__nand2_1
*I *57:Y O *D sky130_fd_sc_hd__nand3_1
*CAP
1 *62:B1 0.000188891
2 *58:B 7.68766e-05
3 *57:Y 0
4 *26:4 0.000265768
5 *58:B *50:A 1.21289e-05
6 *58:B *57:A 5.7661e-06
7 *58:B *57:B 1.33343e-05
8 *58:B *40:29 5.62995e-05
9 *58:B *42:24 1.71774e-05
10 *62:B1 *54:A1 7.83659e-05
11 *62:B1 *57:B 8.32171e-05
12 *62:B1 *59:B 0
13 *62:B1 *61:A2 0
14 *62:B1 *41:36 0.000101545
15 *62:B1 *41:60 0.000106403
16 *58:A *58:B 0
17 *60:A2 *62:B1 1.02504e-05
18 *20:10 *58:B 0
*RES
1 *57:Y *26:4 9.3 
2 *26:4 *58:B 11.5143 
3 *26:4 *62:B1 22.675 
*END

*D_NET *27 0.000362418
*CONN
*I *59:B I *D sky130_fd_sc_hd__xnor2_1
*I *58:Y O *D sky130_fd_sc_hd__nand2_1
*CAP
1 *59:B 0.000139146
2 *58:Y 0.000139146
3 *59:B *40:23 0
4 *59:B *40:29 0
5 *59:B *41:42 5.52238e-05
6 *59:B *42:24 2.89016e-05
7 *62:B1 *59:B 0
*RES
1 *58:Y *59:B 30.0821 
*END

*D_NET *28 0.00028932
*CONN
*I *61:A2 I *D sky130_fd_sc_hd__o21ai_1
*I *59:Y O *D sky130_fd_sc_hd__xnor2_1
*CAP
1 *61:A2 7.78107e-05
2 *59:Y 7.78107e-05
3 *61:A2 *62:A2 3.2738e-05
4 *61:A2 *40:23 0
5 *61:A2 *41:42 0.00010096
6 *62:B1 *61:A2 0
*RES
1 *59:Y *61:A2 29.5821 
*END

*D_NET *29 0.000156883
*CONN
*I *61:B1 I *D sky130_fd_sc_hd__o21ai_1
*I *60:Y O *D sky130_fd_sc_hd__a21oi_1
*CAP
1 *61:B1 2.38412e-05
2 *60:Y 2.38412e-05
3 *61:B1 *60:A1 3.99614e-06
4 *61:B1 *62:A2 7.33365e-05
5 *60:B1 *61:B1 3.18676e-05
*RES
1 *60:Y *61:B1 19.5643 
*END

*D_NET *30 0.00218637
*CONN
*I *65:C I *D sky130_fd_sc_hd__nand4_1
*I *64:A2 I *D sky130_fd_sc_hd__a31o_1
*I *62:Y O *D sky130_fd_sc_hd__o31ai_1
*CAP
1 *65:C 0.000107848
2 *64:A2 0.0003119
3 *62:Y 0
4 *30:4 0.000419748
5 *64:A2 *46:B 0
6 *64:A2 *63:B 6.81335e-05
7 *64:A2 *72:A 0.000225609
8 *64:A2 *37:14 1.37292e-05
9 *64:A2 *37:45 0
10 *64:A2 *39:14 0.000122081
11 *64:A2 *39:27 2.14757e-05
12 *65:C *54:A1 0.000354175
13 *55:A3 *64:A2 6.7257e-05
14 *55:B1 *64:A2 0
15 *60:A2 *65:C 8.13599e-05
16 *15:12 *64:A2 0.000153762
17 *15:35 *64:A2 7.20318e-05
18 *15:35 *65:C 9.41918e-05
19 *17:10 *64:A2 7.30641e-05
*RES
1 *62:Y *30:4 9.3 
2 *30:4 *64:A2 27.0143 
3 *30:4 *65:C 22.675 
*END

*D_NET *31 0.00192599
*CONN
*I *65:D I *D sky130_fd_sc_hd__nand4_1
*I *64:A3 I *D sky130_fd_sc_hd__a31o_1
*I *63:Y O *D sky130_fd_sc_hd__nand2b_1
*CAP
1 *65:D 0.000157559
2 *64:A3 0
3 *63:Y 0.000219107
4 *31:12 0.000376666
5 *65:D *54:A1 1.56e-05
6 *65:D *65:B 0.000156727
7 *65:D *66:A2 0
8 *65:D *37:45 0
9 *31:12 *47:A 2.28499e-05
10 *31:12 *47:B 7.32955e-05
11 *31:12 *64:A1 9.90431e-05
12 *31:12 *37:8 8.07313e-05
13 *31:12 *37:45 5.39629e-06
14 *31:12 *38:8 4.22908e-05
15 *54:A2 *65:D 5.33005e-05
16 *54:B1 *65:D 2.44318e-05
17 *70:D *31:12 0
18 *15:12 *31:12 0.0003379
19 *17:10 *65:D 1.36681e-05
20 *17:38 *65:D 1.03968e-05
21 *18:18 *65:D 0.0001827
22 *18:18 *31:12 5.43251e-05
*RES
1 *63:Y *31:12 17.0679 
2 *31:12 *64:A3 9.3 
3 *31:12 *65:D 13.55 
*END

*D_NET *32 0.000709523
*CONN
*I *66:A2 I *D sky130_fd_sc_hd__a31o_1
*I *64:X O *D sky130_fd_sc_hd__a31o_1
*CAP
1 *66:A2 0.000158766
2 *64:X 0.000158766
3 *66:A2 *65:B 0.00013059
4 *66:A2 *66:A3 5.73512e-05
5 *54:B1 *66:A2 9.60875e-05
6 *65:D *66:A2 0
7 *66:B1 *66:A2 7.3237e-05
8 *70:D *66:A2 3.47258e-05
9 *15:35 *66:A2 0
*RES
1 *64:X *66:A2 31.5464 
*END

*D_NET *33 0.000773661
*CONN
*I *66:A3 I *D sky130_fd_sc_hd__a31o_1
*I *65:Y O *D sky130_fd_sc_hd__nand4_1
*CAP
1 *66:A3 0.000261862
2 *65:Y 0.000261862
3 *66:A3 *54:A1 4.88515e-05
4 *66:A3 *65:B 1.38165e-05
5 *45:B *66:A3 7.15074e-05
6 *48:A2 *66:A3 5.39629e-06
7 *66:A2 *66:A3 5.73512e-05
8 *66:B1 *66:A3 7.48301e-06
9 *15:35 *66:A3 3.5678e-05
10 *16:10 *66:A3 9.85396e-06
*RES
1 *65:Y *66:A3 33.6179 
*END

*D_NET *34 0.00219513
*CONN
*I *73:A I *D sky130_fd_sc_hd__clkbuf_16
*I *72:A I *D sky130_fd_sc_hd__clkbuf_16
*I *71:X O *D sky130_fd_sc_hd__clkbuf_16
*CAP
1 *73:A 0.000128286
2 *72:A 0.000208224
3 *71:X 2.69189e-05
4 *34:8 0.000363428
5 *72:A *54:A1 0
6 *72:A *60:A1 9.3111e-05
7 *72:A *62:A2 4.40915e-05
8 *72:A *63:B 6.87574e-05
9 *72:A *69:CLK 5.43491e-05
10 *72:A *37:45 0
11 *72:A *39:27 5.52238e-05
12 *73:A *45:A 0
13 *73:A *69:CLK 0.000196717
14 *73:A *36:10 0.000121333
15 *48:B1 *73:A 0.000156191
16 *49:B1 *34:8 0
17 *60:B1 *72:A 0.000204726
18 *60:B1 *73:A 0.000122754
19 *64:A2 *72:A 0.000225609
20 *69:D *72:A 9.60875e-05
21 *69:D *34:8 1.92905e-05
22 *16:10 *73:A 1.00375e-05
23 *17:38 *72:A 0
*RES
1 *71:X *34:8 14.3357 
2 *34:8 *72:A 20.6036 
3 *34:8 *73:A 19.0857 
*END

*D_NET *35 0.00118911
*CONN
*I *70:CLK I *D sky130_fd_sc_hd__dfxtp_1
*I *68:CLK I *D sky130_fd_sc_hd__dfxtp_1
*I *72:X O *D sky130_fd_sc_hd__clkbuf_16
*CAP
1 *70:CLK 0.00034084
2 *68:CLK 8.69709e-05
3 *72:X 0
4 *35:6 0.000427811
5 *68:CLK *39:10 0.000116565
6 *70:CLK *63:A_N 9.49429e-05
7 *70:CLK *64:B1 0
8 *70:CLK *37:14 0
9 *70:CLK *39:10 4.6025e-06
10 *74:A *70:CLK 5.16394e-05
11 *75:A *70:CLK 6.57423e-05
12 *15:12 *70:CLK 0
*RES
1 *72:X *35:6 13.8 
2 *35:6 *68:CLK 16.3536 
3 *35:6 *70:CLK 20.9071 
*END

*D_NET *36 0.00180939
*CONN
*I *67:CLK I *D sky130_fd_sc_hd__dfxtp_1
*I *69:CLK I *D sky130_fd_sc_hd__dfxtp_1
*I *73:X O *D sky130_fd_sc_hd__clkbuf_16
*CAP
1 *67:CLK 0
2 *69:CLK 0.000156341
3 *73:X 0.000266584
4 *36:10 0.000422925
5 *69:CLK *40:21 0
6 *36:10 *48:A1 5.88177e-05
7 *36:10 *40:8 0.000106828
8 *60:B1 *69:CLK 6.8646e-06
9 *61:A1 *69:CLK 0.000205264
10 *72:A *69:CLK 5.43491e-05
11 *73:A *69:CLK 0.000196717
12 *73:A *36:10 0.000121333
13 *16:10 *69:CLK 0.000133404
14 *16:10 *36:10 7.99638e-05
*RES
1 *73:X *36:10 20.9071 
2 *36:10 *69:CLK 19.4429 
3 *36:10 *67:CLK 13.8 
*END

*D_NET *37 0.0032936
*CONN
*I *45:A I *D sky130_fd_sc_hd__nand2_1
*I *65:A I *D sky130_fd_sc_hd__nand4_1
*I *55:A1 I *D sky130_fd_sc_hd__a31o_1
*I *64:A1 I *D sky130_fd_sc_hd__a31o_1
*I *47:A I *D sky130_fd_sc_hd__nor2_1
*I *74:X O *D sky130_fd_sc_hd__buf_1
*CAP
1 *45:A 0.000150923
2 *65:A 0
3 *55:A1 0
4 *64:A1 1.77924e-05
5 *47:A 2.99332e-05
6 *74:X 0.000141769
7 *37:45 0.000438386
8 *37:32 0.000348226
9 *37:14 0.000141972
10 *37:8 0.000296778
11 *45:A *54:A1 4.936e-05
12 *37:8 *63:B 0.000202873
13 *37:8 *38:8 0
14 *37:8 *39:14 0
15 *37:32 *63:B 2.42662e-05
16 *37:45 *54:A1 0.000118152
17 *48:B1 *45:A 0
18 *48:B1 *37:45 0
19 *55:B1 *37:45 0.00014285
20 *60:A2 *37:45 0.000103974
21 *64:A2 *37:14 1.37292e-05
22 *64:A2 *37:45 0
23 *65:D *37:45 0
24 *70:CLK *37:14 0
25 *72:A *37:45 0
26 *73:A *45:A 0
27 *15:12 *37:8 1.94048e-05
28 *15:12 *37:14 7.17189e-05
29 *15:12 *37:32 9.20581e-06
30 *15:19 *37:32 5.33005e-05
31 *15:19 *37:45 1.5424e-05
32 *15:35 *45:A 0
33 *15:35 *37:45 5.70107e-05
34 *16:10 *45:A 0
35 *17:10 *37:45 0.00014183
36 *17:38 *37:45 0.000380602
37 *18:18 *47:A 6.29133e-05
38 *18:18 *64:A1 5.31902e-05
39 *31:12 *47:A 2.28499e-05
40 *31:12 *64:A1 9.90431e-05
41 *31:12 *37:8 8.07313e-05
42 *31:12 *37:45 5.39629e-06
*RES
1 *74:X *37:8 13.1393 
2 *37:8 *37:14 11.25 
3 *37:14 *47:A 10.2643 
4 *37:14 *64:A1 10.2464 
5 *37:8 *37:32 1.35714 
6 *37:32 *55:A1 9.3 
7 *37:32 *37:45 12.75 
8 *37:45 *65:A 13.8 
9 *37:45 *45:A 16.3536 
*END

*D_NET *38 0.000371584
*CONN
*I *47:B I *D sky130_fd_sc_hd__nor2_1
*I *44:A I *D sky130_fd_sc_hd__inv_2
*I *75:X O *D sky130_fd_sc_hd__buf_1
*CAP
1 *47:B 4.58479e-05
2 *44:A 0
3 *75:X 8.21508e-05
4 *38:8 0.000127999
5 *70:D *47:B 0
6 *31:12 *47:B 7.32955e-05
7 *31:12 *38:8 4.22908e-05
8 *37:8 *38:8 0
*RES
1 *75:X *38:8 10.9786 
2 *38:8 *44:A 9.3 
3 *38:8 *47:B 10.6571 
*END

*D_NET *39 0.00287178
*CONN
*I *63:A_N I *D sky130_fd_sc_hd__nand2b_1
*I *62:A1 I *D sky130_fd_sc_hd__o31ai_1
*I *51:A I *D sky130_fd_sc_hd__or2_1
*I *52:A I *D sky130_fd_sc_hd__nand2_1
*I *46:B I *D sky130_fd_sc_hd__nor2_1
*I *76:X O *D sky130_fd_sc_hd__buf_1
*CAP
1 *63:A_N 8.18308e-05
2 *62:A1 0
3 *51:A 0
4 *52:A 5.22602e-05
5 *46:B 9.33701e-05
6 *76:X 0.000240962
7 *39:31 0.000175076
8 *39:27 0.000143295
9 *39:14 0.000406176
10 *39:10 0.000615119
11 *46:B *63:B 0.00012603
12 *52:A *57:B 0
13 *52:A *57:C 5.11571e-05
14 *39:14 *63:B 6.87005e-05
15 *39:27 *63:B 8.57023e-05
16 *39:31 *57:C 4.1331e-06
17 *39:31 *63:B 6.20855e-06
18 *39:31 *42:37 8.49344e-05
19 *51:B *52:A 8.39096e-05
20 *53:A *39:14 0
21 *53:A *39:31 0
22 *55:A3 *63:A_N 0
23 *55:A3 *39:10 0
24 *55:A3 *39:31 0
25 *64:A2 *46:B 0
26 *64:A2 *39:14 0.000122081
27 *64:A2 *39:27 2.14757e-05
28 *68:CLK *39:10 0.000116565
29 *68:D *63:A_N 0
30 *68:D *39:10 0
31 *68:D *39:14 0
32 *70:CLK *63:A_N 9.49429e-05
33 *70:CLK *39:10 4.6025e-06
34 *71:A *46:B 0.000138024
35 *72:A *39:27 5.52238e-05
36 *76:A *39:10 0
37 *15:35 *46:B 0
38 *37:8 *39:14 0
*RES
1 *76:X *39:10 19.1214 
2 *39:10 *39:14 10.375 
3 *39:14 *46:B 20.55 
4 *39:14 *39:27 0.946429 
5 *39:27 *39:31 7.66071 
6 *39:31 *52:A 15.7464 
7 *39:31 *51:A 13.8 
8 *39:27 *62:A1 9.3 
9 *39:10 *63:A_N 16.05 
*END

*D_NET *40 0.00554145
*CONN
*I *77:A I *D sky130_fd_sc_hd__buf_1
*I *49:A1 I *D sky130_fd_sc_hd__o21ai_1
*I *62:A2 I *D sky130_fd_sc_hd__o31ai_1
*I *56:A1 I *D sky130_fd_sc_hd__a21o_1
*I *57:A I *D sky130_fd_sc_hd__nand3_1
*I *50:A I *D sky130_fd_sc_hd__xor2_1
*I *48:A1 I *D sky130_fd_sc_hd__a21oi_1
*I *67:Q O *D sky130_fd_sc_hd__dfxtp_1
*CAP
1 *77:A 4.71027e-05
2 *49:A1 7.04318e-05
3 *62:A2 0.000247272
4 *56:A1 0
5 *57:A 2.03441e-05
6 *50:A 0.000331995
7 *48:A1 0.000143581
8 *67:Q 1.99857e-05
9 *40:29 0.000732545
10 *40:23 0.000511478
11 *40:21 0.000519718
12 *40:19 0.000307633
13 *40:8 0.000389968
14 *40:6 0.000217448
15 *50:A *50:B 0.00010096
16 *50:A *57:B 3.18676e-05
17 *50:A *41:23 0
18 *62:A2 *60:A1 0.000168334
19 *62:A2 *62:A3 5.33005e-05
20 *62:A2 *63:B 7.71303e-05
21 *62:A2 *41:42 0.000113524
22 *40:23 *42:12 0
23 *40:29 *42:12 0
24 *40:29 *42:20 0
25 *40:29 *42:24 0
26 counter[2] *40:29 0
27 *48:B1 *48:A1 5.33005e-05
28 *49:A2 *49:A1 4.88637e-05
29 *49:A2 *40:8 0
30 *49:B1 *48:A1 3.59801e-05
31 *49:B1 *49:A1 5.52302e-05
32 *49:B1 *40:19 0.000128868
33 *53:A *62:A2 0
34 *53:B *50:A 0.00010096
35 *55:A3 *50:A 9.22103e-06
36 *58:A *40:29 0.00010096
37 *58:B *50:A 1.21289e-05
38 *58:B *57:A 5.7661e-06
39 *58:B *40:29 5.62995e-05
40 *59:A *62:A2 0
41 *59:B *40:23 0
42 *59:B *40:29 0
43 *60:B1 *62:A2 1.95646e-05
44 *61:A1 *62:A2 3.18168e-05
45 *61:A1 *40:19 5.90443e-06
46 *61:A1 *40:21 5.8955e-05
47 *61:A2 *62:A2 3.2738e-05
48 *61:A2 *40:23 0
49 *61:B1 *62:A2 7.33365e-05
50 *67:D *48:A1 0.000103323
51 *67:D *40:8 8.46829e-05
52 *67:D *40:19 8.81182e-05
53 *69:CLK *40:21 0
54 *69:D *62:A2 3.17887e-05
55 *72:A *62:A2 4.40915e-05
56 *16:10 *48:A1 0
57 *16:10 *40:19 3.69865e-05
58 *17:38 *48:A1 0
59 *20:10 *50:A 5.23057e-05
60 *36:10 *48:A1 5.88177e-05
61 *36:10 *40:8 0.000106828
*RES
1 *67:Q *40:6 9.72857 
2 *40:6 *40:8 4.23214 
3 *40:8 *48:A1 12.7107 
4 *40:8 *40:19 7.66071 
5 *40:19 *40:21 3.16071 
6 *40:21 *40:23 1.94643 
7 *40:23 *40:29 12.1071 
8 *40:29 *50:A 17.1571 
9 *40:29 *57:A 9.72857 
10 *40:23 *56:A1 13.8 
11 *40:21 *62:A2 22.3625 
12 *40:19 *49:A1 15.5679 
13 *40:6 *77:A 10.2643 
*END

*D_NET *41 0.00552194
*CONN
*I *54:A1 I *D sky130_fd_sc_hd__a21o_1
*I *62:A3 I *D sky130_fd_sc_hd__o31ai_1
*I *78:A I *D sky130_fd_sc_hd__buf_1
*I *56:A2 I *D sky130_fd_sc_hd__a21o_1
*I *57:B I *D sky130_fd_sc_hd__nand3_1
*I *50:B I *D sky130_fd_sc_hd__xor2_1
*I *68:Q O *D sky130_fd_sc_hd__dfxtp_1
*CAP
1 *54:A1 0.000406912
2 *62:A3 2.58748e-05
3 *78:A 0.000187315
4 *56:A2 2.06112e-05
5 *57:B 7.139e-05
6 *50:B 0.000168187
7 *68:Q 0
8 *41:60 0.0004546
9 *41:42 0.000415211
10 *41:36 0.000263896
11 *41:23 0.000221472
12 *41:4 0.00028347
13 *54:A1 *65:B 9.99644e-06
14 *54:A1 *42:37 4.49293e-05
15 *56:A2 *56:B1 3.99614e-06
16 *56:A2 *42:20 0
17 *57:B *57:C 0.000108111
18 *57:B *42:24 0
19 *78:A *42:12 1.57931e-05
20 *78:A *42:20 0.000203635
21 *41:23 *42:24 5.33005e-05
22 *41:36 *57:C 2.24646e-05
23 *41:36 *42:37 8.07951e-05
24 *41:42 *42:20 4.70078e-05
25 *41:42 *42:24 0.00013234
26 *41:60 *42:37 9.78605e-05
27 *45:A *54:A1 4.936e-05
28 *50:A *50:B 0.00010096
29 *50:A *57:B 3.18676e-05
30 *50:A *41:23 0
31 *52:A *57:B 0
32 *53:A *50:B 0.000124101
33 *53:A *41:23 0.000120519
34 *53:B *41:23 0
35 *54:A2 *54:A1 2.59355e-05
36 *55:A3 *50:B 0.000115796
37 *58:B *57:B 1.33343e-05
38 *59:A *41:23 1.54142e-05
39 *59:A *41:42 7.32272e-05
40 *59:B *41:42 5.52238e-05
41 *60:A2 *54:A1 0.000140288
42 *61:A2 *41:42 0.00010096
43 *62:A2 *62:A3 5.33005e-05
44 *62:A2 *41:42 0.000113524
45 *62:B1 *54:A1 7.83659e-05
46 *62:B1 *57:B 8.32171e-05
47 *62:B1 *41:36 0.000101545
48 *62:B1 *41:60 0.000106403
49 *65:C *54:A1 0.000354175
50 *65:D *54:A1 1.56e-05
51 *66:A3 *54:A1 4.88515e-05
52 *71:A *54:A1 0
53 *72:A *54:A1 0
54 *15:35 *54:A1 0.000107871
55 *20:10 *50:B 2.47833e-05
56 *20:10 *41:23 9.99644e-06
57 *37:45 *54:A1 0.000118152
*RES
1 *68:Q *41:4 9.3 
2 *41:4 *50:B 22.9607 
3 *41:4 *41:23 7.5 
4 *41:23 *57:B 15.9786 
5 *41:23 *41:36 1.33929 
6 *41:36 *41:42 11.2143 
7 *41:42 *56:A2 9.72857 
8 *41:42 *78:A 13.9607 
9 *41:36 *41:60 1.33929 
10 *41:60 *62:A3 14.3357 
11 *41:60 *54:A1 33.3536 
*END

*D_NET *42 0.0046575
*CONN
*I *79:A I *D sky130_fd_sc_hd__buf_1
*I *56:B1 I *D sky130_fd_sc_hd__a21o_1
*I *60:A1 I *D sky130_fd_sc_hd__a21oi_1
*I *63:B I *D sky130_fd_sc_hd__nand2b_1
*I *57:C I *D sky130_fd_sc_hd__nand3_1
*I *69:Q O *D sky130_fd_sc_hd__dfxtp_1
*CAP
1 *79:A 0
2 *56:B1 2.06112e-05
3 *60:A1 6.98952e-05
4 *63:B 0.000375902
5 *57:C 3.70596e-05
6 *69:Q 0.000190445
7 *42:37 0.000511136
8 *42:24 0.000278443
9 *42:20 0.00038015
10 *42:12 0.000373939
11 counter[1] *42:12 0
12 *46:B *63:B 0.00012603
13 *52:A *57:C 5.11571e-05
14 *53:A *63:B 0
15 *54:A1 *42:37 4.49293e-05
16 *55:A3 *63:B 0
17 *56:A2 *56:B1 3.99614e-06
18 *56:A2 *42:20 0
19 *57:B *57:C 0.000108111
20 *57:B *42:24 0
21 *58:A *42:24 0.00010096
22 *58:B *42:24 1.71774e-05
23 *59:A *42:24 0.00018077
24 *59:B *42:24 2.89016e-05
25 *61:A1 *60:A1 0
26 *61:B1 *60:A1 3.99614e-06
27 *62:A2 *60:A1 0.000168334
28 *62:A2 *63:B 7.71303e-05
29 *64:A2 *63:B 6.81335e-05
30 *72:A *60:A1 9.3111e-05
31 *72:A *63:B 6.87574e-05
32 *78:A *42:12 1.57931e-05
33 *78:A *42:20 0.000203635
34 *15:19 *63:B 9.31893e-05
35 *15:35 *63:B 5.52238e-05
36 *37:8 *63:B 0.000202873
37 *37:32 *63:B 2.42662e-05
38 *39:14 *63:B 6.87005e-05
39 *39:27 *63:B 8.57023e-05
40 *39:31 *57:C 4.1331e-06
41 *39:31 *63:B 6.20855e-06
42 *39:31 *42:37 8.49344e-05
43 *40:23 *42:12 0
44 *40:29 *42:12 0
45 *40:29 *42:20 0
46 *40:29 *42:24 0
47 *41:23 *42:24 5.33005e-05
48 *41:36 *57:C 2.24646e-05
49 *41:36 *42:37 8.07951e-05
50 *41:42 *42:20 4.70078e-05
51 *41:42 *42:24 0.00013234
52 *41:60 *42:37 9.78605e-05
*RES
1 *69:Q *42:12 21.6036 
2 *42:12 *42:20 4.91071 
3 *42:20 *42:24 9.96429 
4 *42:24 *57:C 15.4429 
5 *42:24 *42:37 7.35714 
6 *42:37 *63:B 28.4696 
7 *42:37 *60:A1 11.4964 
8 *42:20 *56:B1 9.72857 
9 *42:12 *79:A 9.3 
*END

*D_NET *43 0.00270555
*CONN
*I *64:B1 I *D sky130_fd_sc_hd__a31o_1
*I *80:A I *D sky130_fd_sc_hd__buf_1
*I *65:B I *D sky130_fd_sc_hd__nand4_1
*I *70:Q O *D sky130_fd_sc_hd__dfxtp_1
*CAP
1 *64:B1 0.000255458
2 *80:A 0.000205966
3 *65:B 0.000318051
4 *70:Q 0
5 *43:29 0.000663143
6 *43:6 0.00051977
7 *48:A2 *65:B 0
8 *54:A1 *65:B 9.99644e-06
9 *54:B1 *65:B 0
10 *65:D *65:B 0.000156727
11 *66:A2 *65:B 0.00013059
12 *66:A3 *65:B 1.38165e-05
13 *66:B1 *64:B1 0
14 *66:B1 *65:B 0.00011077
15 *66:B1 *43:29 0
16 *70:CLK *64:B1 0
17 *70:D *80:A 0
18 *70:D *43:29 0
19 *17:10 *64:B1 0
20 *17:10 *65:B 3.22243e-05
21 *17:38 *65:B 1.32552e-05
22 *18:18 *65:B 7.64507e-05
23 *18:24 *65:B 0.00019933
*RES
1 *70:Q *43:6 13.8 
2 *43:6 *65:B 22.5679 
3 *43:6 *43:29 9.03571 
4 *43:29 *80:A 13.1214 
5 *43:29 *64:B1 23.2821 
*END
