*SPEF "ieee 1481-1999"
*DESIGN "counter_dut"
*DATE "11:18:22 Wednesday December 04, 2024"
*VENDOR "The OpenROAD Project"
*PROGRAM "OpenROAD"
*VERSION "edf00dff99f6c40d67a30c0e22a8191c5d2ed9d6"
*DESIGN_FLOW "NAME_SCOPE LOCAL" "PIN_CAP NONE"
*DIVIDER /
*DELIMITER :
*BUS_DELIMITER []
*T_UNIT 1 NS
*C_UNIT 1 PF
*R_UNIT 1 OHM
*L_UNIT 1 HENRY

*NAME_MAP
*1 clk
*2 counter[0]
*3 counter[1]
*4 counter[2]
*5 counter[3]
*6 enable
*7 reset
*8 up_down
*11 _00_
*12 _01_
*13 _02_
*14 _03_
*15 _04_
*16 _05_
*17 _06_
*18 _07_
*19 _08_
*20 _09_
*21 _10_
*22 _11_
*23 _12_
*24 _13_
*25 _14_
*26 _15_
*27 _16_
*28 _17_
*29 _18_
*30 _19_
*31 _20_
*32 _21_
*33 _22_
*34 clknet_0_clk
*35 clknet_1_0__leaf_clk
*36 clknet_1_1__leaf_clk
*37 net1
*38 net2
*39 net3
*40 net4
*41 net5
*42 net6
*43 net7
*44 _23_
*45 _24_
*46 _25_
*47 _26_
*48 _27_
*49 _28_
*50 _29_
*51 _30_
*52 _31_
*53 _32_
*54 _33_
*55 _34_
*56 _35_
*57 _36_
*58 _37_
*59 _38_
*60 _39_
*61 _40_
*62 _41_
*63 _42_
*64 _43_
*65 _44_
*66 _45_
*67 _46_
*68 _47_
*69 _48_
*70 _49_
*71 clkbuf_0_clk
*72 clkbuf_1_0__f_clk
*73 clkbuf_1_1__f_clk
*74 input1
*75 input2
*76 input3
*77 output4
*78 output5
*79 output6
*80 output7

*PORTS
clk I
counter[0] O
counter[1] O
counter[2] O
counter[3] O
enable I
reset I
up_down I

*D_NET *1 0.00169695
*CONN
*P clk I
*I *71:A I *D sky130_fd_sc_hd__clkbuf_16
*CAP
1 clk 0.000681274
2 *71:A 0
3 *1:11 0.000681274
4 *1:11 *54:A1 6.86684e-05
5 *1:11 *74:A 5.32136e-05
6 *1:11 *8:11 5.08354e-05
7 *1:11 *30:12 0
8 *1:11 *31:10 0.000161688
*RES
1 clk *1:11 27.1277 
2 *1:11 *71:A 23 
*END

*D_NET *2 0.000310048
*CONN
*P counter[0] O
*I *77:X O *D sky130_fd_sc_hd__buf_1
*CAP
1 counter[0] 0.000123749
2 *77:X 0.000123749
3 counter[0] counter[1] 5.32136e-05
4 counter[0] *42:12 9.33529e-06
*RES
1 *77:X counter[0] 46.8213 
*END

*D_NET *3 0.000761761
*CONN
*P counter[1] O
*I *78:X O *D sky130_fd_sc_hd__buf_1
*CAP
1 counter[1] 0.000256835
2 *78:X 0.000256835
3 counter[1] counter[2] 5.08417e-05
4 counter[1] *77:A 0.000133892
5 counter[1] *78:A 0
6 counter[1] *42:12 1.01436e-05
7 counter[0] counter[1] 5.32136e-05
*RES
1 *78:X counter[1] 48.4875 
*END

*D_NET *4 0.000362347
*CONN
*P counter[2] O
*I *79:X O *D sky130_fd_sc_hd__buf_1
*CAP
1 counter[2] 0.000147203
2 *79:X 0.000147203
3 counter[2] *40:12 1.70989e-05
4 counter[1] counter[2] 5.08417e-05
*RES
1 *79:X counter[2] 47.1735 
*END

*D_NET *5 0.000326497
*CONN
*P counter[3] O
*I *80:X O *D sky130_fd_sc_hd__buf_1
*CAP
1 counter[3] 0.000134778
2 *80:X 0.000134778
3 counter[3] *75:A 5.08354e-05
4 counter[3] *80:A 6.10551e-06
*RES
1 *80:X counter[3] 46.8213 
*END

*D_NET *6 0.000465287
*CONN
*P enable I
*I *74:A I *D sky130_fd_sc_hd__buf_1
*CAP
1 enable 0.00018126
2 *74:A 0.00018126
3 *74:A *75:A 4.95527e-05
4 *74:A *35:25 0
5 *1:11 *74:A 5.32136e-05
*RES
1 enable *74:A 47.8778 
*END

*D_NET *7 0.000463861
*CONN
*P reset I
*I *75:A I *D sky130_fd_sc_hd__buf_1
*CAP
1 reset 0.000158727
2 *75:A 0.000158727
3 *75:A *43:16 4.60185e-05
4 counter[3] *75:A 5.08354e-05
5 *74:A *75:A 4.95527e-05
*RES
1 reset *75:A 48.2299 
*END

*D_NET *8 0.000862825
*CONN
*P up_down I
*I *76:A I *D sky130_fd_sc_hd__buf_1
*CAP
1 up_down 0.000343705
2 *76:A 0
3 *8:11 0.000343705
4 *8:11 *52:B 0
5 *8:11 *39:72 0.00012458
6 *1:11 *8:11 5.08354e-05
*RES
1 up_down *8:11 29.1035 
2 *8:11 *76:A 23 
*END

*D_NET *11 0.00159638
*CONN
*I *67:D I *D sky130_fd_sc_hd__dfxtp_1
*I *49:Y O *D sky130_fd_sc_hd__o21ai_1
*CAP
1 *67:D 0.000381833
2 *49:Y 0.000233167
3 *11:8 0.000615
4 *67:D *67:CLK 0.00016248
5 *67:D *69:CLK 1.02387e-05
6 *67:D *78:A 0
7 *67:D *13:10 7.14082e-05
8 *67:D *42:20 0
9 *67:D *42:57 7.10068e-06
10 *11:8 *48:A1 7.9567e-06
11 *11:8 *48:B1 9.8971e-06
12 *11:8 *49:B1 5.67058e-05
13 *11:8 *69:D 2.11102e-05
14 *11:8 *13:10 0
15 *11:8 *18:23 1.94812e-05
*RES
1 *49:Y *11:8 42.9093 
2 *11:8 *67:D 47.4923 
*END

*D_NET *12 0.000571256
*CONN
*I *68:D I *D sky130_fd_sc_hd__dfxtp_1
*I *55:X O *D sky130_fd_sc_hd__a31o_1
*CAP
1 *68:D 8.1127e-06
2 *55:X 9.64149e-05
3 *12:10 0.000104528
4 *68:D *68:CLK 1.64354e-05
5 *68:D *39:10 0
6 *12:10 *51:B 5.89622e-05
7 *12:10 *52:B 2.76611e-06
8 *12:10 *68:CLK 0.000128697
9 *12:10 *21:8 8.06804e-06
10 *12:10 *39:72 0.000147271
*RES
1 *55:X *12:10 41.0036 
2 *12:10 *68:D 38.1916 
*END

*D_NET *13 0.000691
*CONN
*I *69:D I *D sky130_fd_sc_hd__dfxtp_1
*I *61:Y O *D sky130_fd_sc_hd__o21ai_1
*CAP
1 *69:D 4.02439e-05
2 *61:Y 0.000144198
3 *13:10 0.000184442
4 *69:D *36:8 2.11102e-05
5 *13:10 *67:CLK 3.47781e-05
6 *13:10 *69:CLK 0.000120405
7 *13:10 *18:23 0
8 *13:10 *29:10 0
9 *13:10 *36:8 5.3304e-05
10 *67:D *13:10 7.14082e-05
11 *11:8 *69:D 2.11102e-05
12 *11:8 *13:10 0
*RES
1 *61:Y *13:10 41.48 
2 *13:10 *69:D 38.9373 
*END

*D_NET *14 0.000774755
*CONN
*I *70:D I *D sky130_fd_sc_hd__dfxtp_1
*I *66:X O *D sky130_fd_sc_hd__a31o_1
*CAP
1 *70:D 8.12561e-05
2 *66:X 0.000106978
3 *14:10 0.000188234
4 *70:D *49:A1 0
5 *70:D *35:25 0.000129006
6 *70:D *37:68 6.75264e-05
7 *14:10 *15:27 0.000145049
8 *14:10 *37:68 5.67058e-05
*RES
1 *66:X *14:10 40.5271 
2 *14:10 *70:D 40.8638 
*END

*D_NET *15 0.00419384
*CONN
*I *46:A I *D sky130_fd_sc_hd__nor2_1
*I *66:A1 I *D sky130_fd_sc_hd__a31o_1
*I *45:B I *D sky130_fd_sc_hd__nand2_1
*I *55:A2 I *D sky130_fd_sc_hd__a31o_1
*I *44:Y O *D sky130_fd_sc_hd__inv_2
*CAP
1 *46:A 0
2 *66:A1 1.40173e-05
3 *45:B 0
4 *55:A2 0
5 *44:Y 5.78156e-05
6 *15:51 0.000239619
7 *15:36 0.000308534
8 *15:27 0.00012767
9 *15:21 0.000389438
10 *15:14 0.000343051
11 *15:6 0.000607738
12 *66:A1 *66:A2 2.77232e-05
13 *15:6 *37:8 4.93341e-05
14 *15:6 *43:16 7.44257e-05
15 *15:14 *51:B 6.17437e-06
16 *15:14 *55:A1 0
17 *15:14 *68:CLK 9.11165e-05
18 *15:14 *20:12 0
19 *15:14 *21:8 9.84851e-05
20 *15:14 *23:8 2.30292e-05
21 *15:14 *24:8 0
22 *15:14 *35:25 0.000211613
23 *15:14 *37:30 0
24 *15:21 *54:B1 2.87959e-05
25 *15:21 *64:B1 1.72202e-05
26 *15:21 *66:A2 0.000139346
27 *15:21 *33:10 0.000310842
28 *15:21 *37:8 5.10805e-05
29 *15:21 *37:17 0
30 *15:21 *43:16 2.93845e-05
31 *15:27 *48:B1 0
32 *15:27 *16:14 0
33 *15:27 *31:10 8.4047e-05
34 *15:27 *37:68 0.000175996
35 *15:36 *54:B1 1.02949e-05
36 *15:36 *66:A2 6.6426e-05
37 *15:51 *54:B1 0
38 *15:51 *66:B1 9.84794e-05
39 *15:51 *17:8 0.000122627
40 *15:51 *17:19 5.01986e-05
41 *15:51 *17:32 0.000163621
42 *15:51 *31:10 0
43 *15:51 *40:57 2.60152e-05
44 *15:51 *42:57 4.6318e-06
45 *14:10 *15:27 0.000145049
*RES
1 *44:Y *15:6 24.5743 
2 *15:6 *15:14 38.6379 
3 *15:14 *55:A2 23 
4 *15:6 *15:21 6.33857 
5 *15:21 *15:27 33.6664 
6 *15:27 *45:B 23 
7 *15:21 *15:36 1.595 
8 *15:36 *66:A1 23.4971 
9 *15:36 *15:51 36.6493 
10 *15:51 *46:A 23 
*END

*D_NET *16 0.00110195
*CONN
*I *49:A2 I *D sky130_fd_sc_hd__o21ai_1
*I *61:A1 I *D sky130_fd_sc_hd__o21ai_1
*I *45:Y O *D sky130_fd_sc_hd__nand2_1
*CAP
1 *49:A2 0
2 *61:A1 0
3 *45:Y 0.000129704
4 *16:14 0.000245574
5 *16:6 0.000375278
6 *16:6 *49:A1 1.39317e-05
7 *16:6 *66:B1 0
8 *16:6 *37:68 9.84794e-05
9 *16:14 *48:A1 4.38068e-06
10 *16:14 *48:B1 0.000172845
11 *16:14 *49:A1 6.74969e-06
12 *16:14 *66:B1 5.50049e-05
13 *16:14 *18:15 0
14 *16:14 *18:23 0
15 *16:14 *37:68 0
16 *15:27 *16:14 0
*RES
1 *45:Y *16:6 26.0036 
2 *16:6 *16:14 34.8886 
3 *16:14 *61:A1 23 
4 *16:6 *49:A2 23 
*END

*D_NET *17 0.00377484
*CONN
*I *48:B1 I *D sky130_fd_sc_hd__a21oi_1
*I *66:B1 I *D sky130_fd_sc_hd__a31o_1
*I *54:B1 I *D sky130_fd_sc_hd__a21o_1
*I *60:B1 I *D sky130_fd_sc_hd__a21oi_1
*I *46:Y O *D sky130_fd_sc_hd__nor2_1
*CAP
1 *48:B1 0.000100031
2 *66:B1 4.94703e-05
3 *54:B1 0.000215521
4 *60:B1 0.000216682
5 *46:Y 2.022e-05
6 *17:32 0.000199403
7 *17:19 0.000293611
8 *17:8 0.000265089
9 *48:B1 *48:A1 5.50106e-05
10 *48:B1 *49:A1 5.3304e-05
11 *48:B1 *49:B1 2.30292e-05
12 *48:B1 *40:57 0.000170604
13 *54:B1 *18:8 7.53613e-05
14 *54:B1 *18:15 0.00039759
15 *54:B1 *37:8 0
16 *60:B1 *60:A2 0.000339983
17 *60:B1 *72:A 2.65776e-05
18 *60:B1 *18:15 0.000180224
19 *60:B1 *42:57 0
20 *66:B1 *49:A1 0
21 *17:8 *40:57 0.000120396
22 *17:19 *40:57 5.94125e-05
23 *17:32 *40:57 0.000201561
24 *11:8 *48:B1 9.8971e-06
25 *15:21 *54:B1 2.87959e-05
26 *15:27 *48:B1 0
27 *15:36 *54:B1 1.02949e-05
28 *15:51 *54:B1 0
29 *15:51 *66:B1 9.84794e-05
30 *15:51 *17:8 0.000122627
31 *15:51 *17:19 5.01986e-05
32 *15:51 *17:32 0.000163621
33 *16:6 *66:B1 0
34 *16:14 *48:B1 0.000172845
35 *16:14 *66:B1 5.50049e-05
*RES
1 *46:Y *17:8 39.5536 
2 *17:8 *60:B1 43.8621 
3 *17:8 *17:19 0.849286 
4 *17:19 *54:B1 44.3593 
5 *17:19 *17:32 2.61 
6 *17:32 *66:B1 39.5743 
7 *17:32 *48:B1 41.7079 
*END

*D_NET *18 0.00340092
*CONN
*I *60:A2 I *D sky130_fd_sc_hd__a21oi_1
*I *48:A2 I *D sky130_fd_sc_hd__a21oi_1
*I *54:A2 I *D sky130_fd_sc_hd__a21o_1
*I *47:Y O *D sky130_fd_sc_hd__nor2_1
*CAP
1 *60:A2 0.000184411
2 *48:A2 0
3 *54:A2 0
4 *47:Y 0.000181407
5 *18:23 0.000162722
6 *18:15 0.00059874
7 *18:8 0.000433014
8 *60:A2 *29:10 0.000112612
9 *60:A2 *42:16 2.93845e-05
10 *60:A2 *42:57 0
11 *18:8 *37:8 1.32939e-05
12 *18:8 *37:17 0.000141954
13 *18:15 *72:A 0
14 *18:15 *39:50 0
15 *18:23 *48:A1 6.17437e-06
16 *18:23 *67:CLK 2.04774e-05
17 *18:23 *69:CLK 4.51974e-05
18 *18:23 *73:A 5.65594e-05
19 *18:23 *28:8 0.000175996
20 *18:23 *29:10 0.000150423
21 *18:23 *40:57 7.59135e-05
22 *54:B1 *18:8 7.53613e-05
23 *54:B1 *18:15 0.00039759
24 *60:B1 *60:A2 0.000339983
25 *60:B1 *18:15 0.000180224
26 *11:8 *18:23 1.94812e-05
27 *13:10 *18:23 0
28 *16:14 *18:15 0
29 *16:14 *18:23 0
*RES
1 *47:Y *18:8 27.4536 
2 *18:8 *54:A2 23 
3 *18:8 *18:15 6.33857 
4 *18:15 *18:23 36.4007 
5 *18:23 *48:A2 23 
6 *18:15 *60:A2 28.3857 
*END

*D_NET *19 0.000145764
*CONN
*I *49:B1 I *D sky130_fd_sc_hd__o21ai_1
*I *48:Y O *D sky130_fd_sc_hd__a21oi_1
*CAP
1 *49:B1 3.30143e-05
2 *48:Y 3.30143e-05
3 *48:B1 *49:B1 2.30292e-05
4 *11:8 *49:B1 5.67058e-05
*RES
1 *48:Y *49:B1 47.1186 
*END

*D_NET *20 0.00170159
*CONN
*I *51:B I *D sky130_fd_sc_hd__or2_1
*I *52:B I *D sky130_fd_sc_hd__nand2_1
*I *50:X O *D sky130_fd_sc_hd__xor2_1
*CAP
1 *51:B 0.000146442
2 *52:B 0.000230315
3 *50:X 0.000238489
4 *20:12 0.000615246
5 *51:B *68:CLK 7.14082e-05
6 *51:B *21:8 2.98648e-05
7 *51:B *39:23 0
8 *51:B *41:14 0
9 *52:B *39:10 0.000185434
10 *52:B *39:23 0
11 *52:B *39:72 0
12 *20:12 *50:B 9.88574e-06
13 *20:12 *22:10 6.71074e-05
14 *20:12 *23:8 2.21565e-05
15 *20:12 *39:10 0
16 *20:12 *41:14 1.73399e-05
17 *8:11 *52:B 0
18 *12:10 *51:B 5.89622e-05
19 *12:10 *52:B 2.76611e-06
20 *15:14 *51:B 6.17437e-06
21 *15:14 *20:12 0
*RES
1 *50:X *20:12 43.9036 
2 *20:12 *52:B 43.365 
3 *20:12 *51:B 41.3557 
*END

*D_NET *21 0.00201883
*CONN
*I *59:A I *D sky130_fd_sc_hd__xnor2_1
*I *53:A I *D sky130_fd_sc_hd__nand2_1
*I *51:X O *D sky130_fd_sc_hd__or2_1
*CAP
1 *59:A 2.38789e-05
2 *53:A 0
3 *51:X 0.000455443
4 *21:8 0.000479322
5 *59:A *62:B1 0.000143655
6 *59:A *41:29 5.29672e-05
7 *21:8 *55:A1 4.6595e-05
8 *21:8 *55:B1 5.50049e-05
9 *21:8 *62:A1 0.000145393
10 *21:8 *62:B1 5.25307e-05
11 *21:8 *68:CLK 0
12 *21:8 *23:8 1.84959e-05
13 *21:8 *30:12 9.5877e-05
14 *21:8 *41:18 5.3304e-05
15 *21:8 *41:29 0.000259945
16 *51:B *21:8 2.98648e-05
17 *12:10 *21:8 8.06804e-06
18 *15:14 *21:8 9.84851e-05
*RES
1 *51:X *21:8 34.4757 
2 *21:8 *53:A 23 
3 *21:8 *59:A 24.5743 
*END

*D_NET *22 0.00107666
*CONN
*I *53:B I *D sky130_fd_sc_hd__nand2_1
*I *52:Y O *D sky130_fd_sc_hd__nand2_1
*CAP
1 *53:B 0
2 *52:Y 0.000381054
3 *22:10 0.000381054
4 *22:10 *50:B 1.41025e-05
5 *22:10 *39:10 3.22879e-05
6 *22:10 *39:23 0.000103637
7 *22:10 *40:31 0
8 *22:10 *40:41 9.74132e-05
9 *22:10 *40:53 0
10 *20:12 *22:10 6.71074e-05
*RES
1 *52:Y *22:10 47.1557 
2 *22:10 *53:B 38 
*END

*D_NET *23 0.00108433
*CONN
*I *55:A3 I *D sky130_fd_sc_hd__a31o_1
*I *53:Y O *D sky130_fd_sc_hd__nand2_1
*CAP
1 *55:A3 0
2 *53:Y 0.000277455
3 *23:8 0.000277455
4 *23:8 *50:B 2.64104e-05
5 *23:8 *55:A1 8.1796e-05
6 *23:8 *62:B1 0.00030805
7 *23:8 *30:12 1.57571e-05
8 *23:8 *40:31 5.27215e-06
9 *23:8 *40:41 8.97286e-06
10 *23:8 *41:14 1.94812e-05
11 *15:14 *23:8 2.30292e-05
12 *20:12 *23:8 2.21565e-05
13 *21:8 *23:8 1.84959e-05
*RES
1 *53:Y *23:8 30.6643 
2 *23:8 *55:A3 23 
*END

*D_NET *24 0.000810429
*CONN
*I *55:B1 I *D sky130_fd_sc_hd__a31o_1
*I *54:X O *D sky130_fd_sc_hd__a21o_1
*CAP
1 *55:B1 1.08768e-05
2 *54:X 0.000156965
3 *24:8 0.000167842
4 *55:B1 *55:A1 5.67058e-05
5 *24:8 *55:A1 0.000363033
6 *15:14 *24:8 0
7 *21:8 *55:B1 5.50049e-05
*RES
1 *54:X *24:8 42.7229 
2 *24:8 *55:B1 38.6214 
*END

*D_NET *25 0.000105752
*CONN
*I *58:A I *D sky130_fd_sc_hd__nand2_1
*I *56:X O *D sky130_fd_sc_hd__a21o_1
*CAP
1 *58:A 8.37909e-06
2 *56:X 8.37909e-06
3 *58:A *57:C 5.67058e-05
4 *58:A *41:46 3.22879e-05
*RES
1 *56:X *58:A 46.6214 
*END

*D_NET *26 0.0017796
*CONN
*I *58:B I *D sky130_fd_sc_hd__nand2_1
*I *62:B1 I *D sky130_fd_sc_hd__o31ai_1
*I *57:Y O *D sky130_fd_sc_hd__nand3_1
*CAP
1 *58:B 6.58467e-05
2 *62:B1 0.000242866
3 *57:Y 2.14194e-05
4 *26:6 0.000330132
5 *58:B *57:A 1.32314e-05
6 *58:B *57:C 5.67058e-05
7 *58:B *27:6 0.000140459
8 *58:B *40:25 3.01687e-05
9 *62:B1 *57:A 0.000143655
10 *62:B1 *62:A1 7.37037e-05
11 *62:B1 *27:6 2.18506e-05
12 *62:B1 *30:12 4.07999e-05
13 *62:B1 *40:25 5.38249e-05
14 *62:B1 *40:31 0
15 *62:B1 *40:41 3.32677e-05
16 *62:B1 *41:29 7.43025e-06
17 *59:A *62:B1 0.000143655
18 *21:8 *62:B1 5.25307e-05
19 *23:8 *62:B1 0.00030805
*RES
1 *57:Y *26:6 23.4971 
2 *26:6 *62:B1 31.265 
3 *26:6 *58:B 25.6929 
*END

*D_NET *27 0.000861957
*CONN
*I *59:B I *D sky130_fd_sc_hd__xnor2_1
*I *58:Y O *D sky130_fd_sc_hd__nand2_1
*CAP
1 *59:B 0
2 *58:Y 7.54812e-05
3 *27:6 7.54812e-05
4 *27:6 *57:A 0.000143655
5 *27:6 *57:C 2.4754e-05
6 *27:6 *41:29 0.000250753
7 *27:6 *41:46 0.000129522
8 *58:B *27:6 0.000140459
9 *62:B1 *27:6 2.18506e-05
*RES
1 *58:Y *27:6 27.4329 
2 *27:6 *59:B 23 
*END

*D_NET *28 0.000898477
*CONN
*I *61:A2 I *D sky130_fd_sc_hd__o21ai_1
*I *59:Y O *D sky130_fd_sc_hd__xnor2_1
*CAP
1 *61:A2 0
2 *59:Y 0.000200798
3 *28:8 0.000200798
4 *28:8 *67:CLK 0
5 *28:8 *72:A 4.26957e-05
6 *28:8 *73:A 1.17049e-05
7 *28:8 *40:57 0.000266483
8 *18:23 *28:8 0.000175996
*RES
1 *59:Y *28:8 44.8357 
2 *28:8 *61:A2 38 
*END

*D_NET *29 0.000803634
*CONN
*I *61:B1 I *D sky130_fd_sc_hd__o21ai_1
*I *60:Y O *D sky130_fd_sc_hd__a21oi_1
*CAP
1 *61:B1 0
2 *60:Y 0.000196199
3 *29:10 0.000196199
4 *29:10 *73:A 0.000148201
5 *29:10 *36:8 0
6 *60:A2 *29:10 0.000112612
7 *13:10 *29:10 0
8 *18:23 *29:10 0.000150423
*RES
1 *60:Y *29:10 43.3857 
2 *29:10 *61:B1 38 
*END

*D_NET *30 0.00227123
*CONN
*I *65:C I *D sky130_fd_sc_hd__nand4_1
*I *64:A2 I *D sky130_fd_sc_hd__a31o_1
*I *62:Y O *D sky130_fd_sc_hd__o31ai_1
*CAP
1 *65:C 8.8846e-05
2 *64:A2 0
3 *62:Y 0.00029083
4 *30:12 0.000379676
5 *65:C *64:B1 2.4754e-05
6 *65:C *65:A 0.000185428
7 *65:C *65:D 0.00018282
8 *65:C *31:10 0
9 *65:C *37:41 5.01986e-05
10 *65:C *37:68 4.08664e-05
11 *30:12 *54:A1 0.000155992
12 *30:12 *55:A1 0.000415463
13 *30:12 *62:A1 2.53809e-05
14 *30:12 *31:10 0
15 *30:12 *37:30 0.000225275
16 *30:12 *37:41 1.14452e-05
17 *30:12 *41:14 4.18201e-05
18 *62:B1 *30:12 4.07999e-05
19 *1:11 *30:12 0
20 *21:8 *30:12 9.5877e-05
21 *23:8 *30:12 1.57571e-05
*RES
1 *62:Y *30:12 47.8393 
2 *30:12 *64:A2 38 
3 *30:12 *65:C 41.3764 
*END

*D_NET *31 0.00188602
*CONN
*I *64:A3 I *D sky130_fd_sc_hd__a31o_1
*I *65:D I *D sky130_fd_sc_hd__nand4_1
*I *63:Y O *D sky130_fd_sc_hd__nand2b_1
*CAP
1 *64:A3 0
2 *65:D 6.20529e-05
3 *63:Y 0.00030855
4 *31:14 9.1789e-05
5 *31:10 0.000338286
6 *65:D *64:B1 0.00010018
7 *65:D *33:10 7.10357e-05
8 *65:D *37:68 2.89076e-05
9 *31:10 *54:A1 8.32909e-06
10 *31:10 *39:50 7.3367e-05
11 *31:10 *41:29 1.73399e-05
12 *31:10 *42:57 0
13 *31:14 *33:10 0.000172197
14 *31:14 *37:68 0.000185428
15 *65:C *65:D 0.00018282
16 *65:C *31:10 0
17 *1:11 *31:10 0.000161688
18 *15:27 *31:10 8.4047e-05
19 *15:51 *31:10 0
20 *30:12 *31:10 0
*RES
1 *63:Y *31:10 45.105 
2 *31:10 *31:14 17.0507 
3 *31:14 *65:D 25.5271 
4 *31:14 *64:A3 23 
*END

*D_NET *32 0.000525483
*CONN
*I *66:A2 I *D sky130_fd_sc_hd__a31o_1
*I *64:X O *D sky130_fd_sc_hd__a31o_1
*CAP
1 *66:A2 6.84366e-05
2 *64:X 6.84366e-05
3 *66:A2 *33:10 0.000139346
4 *66:A2 *37:68 1.5769e-05
5 *66:A1 *66:A2 2.77232e-05
6 *15:21 *66:A2 0.000139346
7 *15:36 *66:A2 6.6426e-05
*RES
1 *64:X *66:A2 48.5479 
*END

*D_NET *33 0.00114177
*CONN
*I *66:A3 I *D sky130_fd_sc_hd__a31o_1
*I *65:Y O *D sky130_fd_sc_hd__nand4_1
*CAP
1 *66:A3 0
2 *65:Y 0.000142202
3 *33:10 0.000142202
4 *33:10 *64:B1 0.000143655
5 *33:10 *65:B 0
6 *33:10 *37:68 2.02872e-05
7 *65:D *33:10 7.10357e-05
8 *66:A2 *33:10 0.000139346
9 *15:21 *33:10 0.000310842
10 *31:14 *33:10 0.000172197
*RES
1 *65:Y *33:10 29.0279 
2 *33:10 *66:A3 23 
*END

*D_NET *34 0.00170245
*CONN
*I *73:A I *D sky130_fd_sc_hd__clkbuf_16
*I *72:A I *D sky130_fd_sc_hd__clkbuf_16
*I *71:X O *D sky130_fd_sc_hd__clkbuf_16
*CAP
1 *73:A 7.8515e-05
2 *72:A 0.000293945
3 *71:X 0
4 *34:6 0.00037246
5 *72:A *46:B 7.88828e-05
6 *72:A *63:B 1.28818e-05
7 *72:A *67:CLK 0.000120405
8 *72:A *39:50 9.24408e-05
9 *72:A *42:57 5.94488e-05
10 *73:A *67:CLK 0.000307731
11 *60:B1 *72:A 2.65776e-05
12 *18:15 *72:A 0
13 *18:23 *73:A 5.65594e-05
14 *28:8 *72:A 4.26957e-05
15 *28:8 *73:A 1.17049e-05
16 *29:10 *73:A 0.000148201
*RES
1 *71:X *34:6 38 
2 *34:6 *72:A 45.8921 
3 *34:6 *73:A 42.0186 
*END

*D_NET *35 0.00261588
*CONN
*I *70:CLK I *D sky130_fd_sc_hd__dfxtp_1
*I *68:CLK I *D sky130_fd_sc_hd__dfxtp_1
*I *72:X O *D sky130_fd_sc_hd__clkbuf_16
*CAP
1 *70:CLK 0
2 *68:CLK 0.000298629
3 *72:X 0
4 *35:25 0.00059926
5 *35:6 0.000897889
6 *68:CLK *55:A1 0
7 *68:CLK *39:6 0
8 *68:CLK *39:10 0
9 *68:CLK *39:72 1.47563e-05
10 *68:CLK *41:14 0
11 *35:25 *65:A 3.10046e-05
12 *35:25 *37:30 0
13 *35:25 *37:41 0
14 *35:25 *37:68 5.44e-06
15 *35:25 *43:16 0.000120629
16 *51:B *68:CLK 7.14082e-05
17 *68:D *68:CLK 1.64354e-05
18 *70:D *35:25 0.000129006
19 *74:A *35:25 0
20 *12:10 *68:CLK 0.000128697
21 *15:14 *68:CLK 9.11165e-05
22 *15:14 *35:25 0.000211613
23 *21:8 *68:CLK 0
*RES
1 *72:X *35:6 38 
2 *35:6 *68:CLK 45.2707 
3 *35:6 *35:25 29.8107 
4 *35:25 *70:CLK 23 
*END

*D_NET *36 0.0019109
*CONN
*I *69:CLK I *D sky130_fd_sc_hd__dfxtp_1
*I *67:CLK I *D sky130_fd_sc_hd__dfxtp_1
*I *73:X O *D sky130_fd_sc_hd__clkbuf_16
*CAP
1 *69:CLK 4.25733e-05
2 *67:CLK 0.000150386
3 *73:X 0.000314428
4 *36:8 0.000507387
5 *67:D *67:CLK 0.00016248
6 *67:D *69:CLK 1.02387e-05
7 *69:D *36:8 2.11102e-05
8 *72:A *67:CLK 0.000120405
9 *73:A *67:CLK 0.000307731
10 *13:10 *67:CLK 3.47781e-05
11 *13:10 *69:CLK 0.000120405
12 *13:10 *36:8 5.3304e-05
13 *18:23 *67:CLK 2.04774e-05
14 *18:23 *69:CLK 4.51974e-05
15 *28:8 *67:CLK 0
16 *29:10 *36:8 0
*RES
1 *73:X *36:8 44.3386 
2 *36:8 *67:CLK 44.4836 
3 *36:8 *69:CLK 39.9057 
*END

*D_NET *37 0.00476357
*CONN
*I *45:A I *D sky130_fd_sc_hd__nand2_1
*I *65:A I *D sky130_fd_sc_hd__nand4_1
*I *64:A1 I *D sky130_fd_sc_hd__a31o_1
*I *55:A1 I *D sky130_fd_sc_hd__a31o_1
*I *47:A I *D sky130_fd_sc_hd__nor2_1
*I *74:X O *D sky130_fd_sc_hd__buf_1
*CAP
1 *45:A 0
2 *65:A 0.000137871
3 *64:A1 0
4 *55:A1 0.000146464
5 *47:A 0
6 *74:X 0.000155936
7 *37:68 0.000304141
8 *37:41 0.00049218
9 *37:30 0.000164164
10 *37:17 0.000313215
11 *37:8 0.000208691
12 *55:A1 *41:14 1.22906e-05
13 *65:A *44:A 0
14 *65:A *64:B1 1.22822e-05
15 *65:A *65:B 2.43306e-05
16 *65:A *43:16 6.51499e-05
17 *37:8 *44:A 0
18 *37:8 *47:B 0.000308844
19 *54:B1 *37:8 0
20 *55:B1 *55:A1 5.67058e-05
21 *65:C *65:A 0.000185428
22 *65:C *37:41 5.01986e-05
23 *65:C *37:68 4.08664e-05
24 *65:D *37:68 2.89076e-05
25 *66:A2 *37:68 1.5769e-05
26 *68:CLK *55:A1 0
27 *70:D *37:68 6.75264e-05
28 *14:10 *37:68 5.67058e-05
29 *15:6 *37:8 4.93341e-05
30 *15:14 *55:A1 0
31 *15:14 *37:30 0
32 *15:21 *37:8 5.10805e-05
33 *15:21 *37:17 0
34 *15:27 *37:68 0.000175996
35 *16:6 *37:68 9.84794e-05
36 *16:14 *37:68 0
37 *18:8 *37:8 1.32939e-05
38 *18:8 *37:17 0.000141954
39 *21:8 *55:A1 4.6595e-05
40 *23:8 *55:A1 8.1796e-05
41 *24:8 *55:A1 0.000363033
42 *30:12 *55:A1 0.000415463
43 *30:12 *37:30 0.000225275
44 *30:12 *37:41 1.14452e-05
45 *31:14 *37:68 0.000185428
46 *33:10 *37:68 2.02872e-05
47 *35:25 *65:A 3.10046e-05
48 *35:25 *37:30 0
49 *35:25 *37:41 0
50 *35:25 *37:68 5.44e-06
*RES
1 *74:X *37:8 28.1579 
2 *37:8 *47:A 23 
3 *37:8 *37:17 16.5743 
4 *37:17 *55:A1 45.3536 
5 *37:17 *37:30 2.96214 
6 *37:30 *64:A1 38 
7 *37:30 *37:41 16.2014 
8 *37:41 *65:A 27.4743 
9 *37:41 *37:68 39.28 
10 *37:68 *45:A 23 
*END

*D_NET *38 0.00111909
*CONN
*I *44:A I *D sky130_fd_sc_hd__inv_2
*I *47:B I *D sky130_fd_sc_hd__nor2_1
*I *75:X O *D sky130_fd_sc_hd__buf_1
*CAP
1 *44:A 8.41397e-05
2 *47:B 0.000320984
3 *75:X 0
4 *38:4 0.000405124
5 *44:A *65:B 0
6 *44:A *43:8 0
7 *65:A *44:A 0
8 *37:8 *44:A 0
9 *37:8 *47:B 0.000308844
*RES
1 *75:X *38:4 23 
2 *38:4 *47:B 31.41 
3 *38:4 *44:A 24.8229 
*END

*D_NET *39 0.00405298
*CONN
*I *51:A I *D sky130_fd_sc_hd__or2_1
*I *46:B I *D sky130_fd_sc_hd__nor2_1
*I *63:A_N I *D sky130_fd_sc_hd__nand2b_1
*I *62:A1 I *D sky130_fd_sc_hd__o31ai_1
*I *52:A I *D sky130_fd_sc_hd__nand2_1
*I *76:X O *D sky130_fd_sc_hd__buf_1
*CAP
1 *51:A 0
2 *46:B 4.70184e-05
3 *63:A_N 1.40396e-05
4 *62:A1 5.29503e-05
5 *52:A 2.34823e-05
6 *76:X 3.34217e-05
7 *39:72 0.000120411
8 *39:50 0.000348768
9 *39:23 0.000709623
10 *39:10 0.000629421
11 *39:6 0.000390808
12 *46:B *42:57 7.1349e-05
13 *62:A1 *40:41 3.32677e-05
14 *39:23 *40:41 9.63815e-05
15 *39:23 *41:14 7.03869e-05
16 *39:50 *54:A1 0.000148201
17 *39:50 *63:B 6.39489e-06
18 *39:50 *40:41 4.6318e-06
19 *39:50 *40:57 0
20 *39:50 *41:14 6.03681e-05
21 *39:50 *41:18 8.91468e-07
22 *39:50 *41:29 3.90217e-05
23 *39:50 *42:57 5.50106e-05
24 *51:B *39:23 0
25 *52:B *39:10 0.000185434
26 *52:B *39:23 0
27 *52:B *39:72 0
28 *62:B1 *62:A1 7.37037e-05
29 *68:CLK *39:6 0
30 *68:CLK *39:10 0
31 *68:CLK *39:72 1.47563e-05
32 *68:D *39:10 0
33 *72:A *46:B 7.88828e-05
34 *72:A *39:50 9.24408e-05
35 *8:11 *39:72 0.00012458
36 *12:10 *39:72 0.000147271
37 *18:15 *39:50 0
38 *20:12 *39:10 0
39 *21:8 *62:A1 0.000145393
40 *22:10 *39:10 3.22879e-05
41 *22:10 *39:23 0.000103637
42 *30:12 *62:A1 2.53809e-05
43 *31:10 *39:50 7.3367e-05
*RES
1 *76:X *39:6 23.6214 
2 *39:6 *39:10 5.75857 
3 *39:10 *52:A 23.4971 
4 *39:10 *39:23 22.4779 
5 *39:23 *62:A1 40.7136 
6 *39:23 *39:50 22.5814 
7 *39:50 *63:A_N 23.4971 
8 *39:50 *46:B 25.0714 
9 *39:6 *39:72 34.3707 
10 *39:72 *51:A 23 
*END

*D_NET *40 0.00583289
*CONN
*I *77:A I *D sky130_fd_sc_hd__buf_1
*I *57:A I *D sky130_fd_sc_hd__nand3_1
*I *48:A1 I *D sky130_fd_sc_hd__a21oi_1
*I *49:A1 I *D sky130_fd_sc_hd__o21ai_1
*I *50:A I *D sky130_fd_sc_hd__xor2_1
*I *62:A2 I *D sky130_fd_sc_hd__o31ai_1
*I *56:A1 I *D sky130_fd_sc_hd__a21o_1
*I *67:Q O *D sky130_fd_sc_hd__dfxtp_1
*CAP
1 *77:A 0.0001573
2 *57:A 5.96903e-05
3 *48:A1 6.85134e-05
4 *49:A1 0.000129581
5 *50:A 0
6 *62:A2 0
7 *56:A1 1.08813e-05
8 *67:Q 0
9 *40:57 0.00054934
10 *40:53 0.000509926
11 *40:41 0.000150057
12 *40:31 0.000347369
13 *40:25 0.000659997
14 *40:12 0.000618697
15 *40:6 0.00040142
16 *56:A1 *79:A 4.06849e-05
17 *77:A *78:A 0
18 *77:A *42:12 3.38603e-05
19 *40:12 *56:A2 0
20 *40:12 *78:A 0
21 *40:12 *79:A 7.24365e-05
22 *40:25 *57:C 8.38096e-05
23 *40:25 *79:A 0
24 *40:41 *50:B 5.67058e-05
25 *40:53 *41:37 0
26 *40:57 *41:37 0
27 *40:57 *42:57 0
28 counter[1] *77:A 0.000133892
29 counter[2] *40:12 1.70989e-05
30 *48:B1 *48:A1 5.50106e-05
31 *48:B1 *49:A1 5.3304e-05
32 *48:B1 *40:57 0.000170604
33 *58:B *57:A 1.32314e-05
34 *58:B *40:25 3.01687e-05
35 *62:A1 *40:41 3.32677e-05
36 *62:B1 *57:A 0.000143655
37 *62:B1 *40:25 5.38249e-05
38 *62:B1 *40:31 0
39 *62:B1 *40:41 3.32677e-05
40 *66:B1 *49:A1 0
41 *70:D *49:A1 0
42 *11:8 *48:A1 7.9567e-06
43 *15:51 *40:57 2.60152e-05
44 *16:6 *49:A1 1.39317e-05
45 *16:14 *48:A1 4.38068e-06
46 *16:14 *49:A1 6.74969e-06
47 *17:8 *40:57 0.000120396
48 *17:19 *40:57 5.94125e-05
49 *17:32 *40:57 0.000201561
50 *18:23 *48:A1 6.17437e-06
51 *18:23 *40:57 7.59135e-05
52 *22:10 *40:31 0
53 *22:10 *40:41 9.74132e-05
54 *22:10 *40:53 0
55 *23:8 *40:31 5.27215e-06
56 *23:8 *40:41 8.97286e-06
57 *27:6 *57:A 0.000143655
58 *28:8 *40:57 0.000266483
59 *39:23 *40:41 9.63815e-05
60 *39:50 *40:41 4.6318e-06
61 *39:50 *40:57 0
*RES
1 *67:Q *40:6 38 
2 *40:6 *40:12 20.0129 
3 *40:12 *56:A1 24.0979 
4 *40:12 *40:25 24.4457 
5 *40:25 *40:31 18.8529 
6 *40:31 *40:41 34.0911 
7 *40:41 *62:A2 23 
8 *40:31 *50:A 23 
9 *40:25 *40:53 1.90571 
10 *40:53 *40:57 25.7093 
11 *40:57 *49:A1 25.4236 
12 *40:57 *48:A1 24.5743 
13 *40:53 *57:A 40.1957 
14 *40:6 *77:A 42.4329 
*END

*D_NET *41 0.00461356
*CONN
*I *50:B I *D sky130_fd_sc_hd__xor2_1
*I *54:A1 I *D sky130_fd_sc_hd__a21o_1
*I *78:A I *D sky130_fd_sc_hd__buf_1
*I *56:A2 I *D sky130_fd_sc_hd__a21o_1
*I *57:B I *D sky130_fd_sc_hd__nand3_1
*I *62:A3 I *D sky130_fd_sc_hd__o31ai_1
*I *68:Q O *D sky130_fd_sc_hd__dfxtp_1
*CAP
1 *50:B 0.000136023
2 *54:A1 7.58964e-05
3 *78:A 0.000264025
4 *56:A2 4.62462e-05
5 *57:B 0
6 *62:A3 0
7 *68:Q 0
8 *41:46 0.000447031
9 *41:37 0.000111474
10 *41:29 0.000454307
11 *41:18 0.000241747
12 *41:14 0.000309341
13 *41:4 0.000333794
14 *56:A2 *42:24 1.86869e-05
15 *78:A *42:12 0
16 *78:A *42:16 7.88926e-05
17 *78:A *42:20 8.11651e-05
18 *78:A *42:24 3.74442e-05
19 *41:29 *42:57 0.000151267
20 *41:46 *57:C 4.22202e-05
21 *41:46 *79:A 0.000140259
22 *41:46 *42:57 9.02985e-05
23 counter[1] *78:A 0
24 *51:B *41:14 0
25 *55:A1 *41:14 1.22906e-05
26 *58:A *41:46 3.22879e-05
27 *59:A *41:29 5.29672e-05
28 *62:B1 *41:29 7.43025e-06
29 *67:D *78:A 0
30 *68:CLK *41:14 0
31 *77:A *78:A 0
32 *1:11 *54:A1 6.86684e-05
33 *20:12 *50:B 9.88574e-06
34 *20:12 *41:14 1.73399e-05
35 *21:8 *41:18 5.3304e-05
36 *21:8 *41:29 0.000259945
37 *22:10 *50:B 1.41025e-05
38 *23:8 *50:B 2.64104e-05
39 *23:8 *41:14 1.94812e-05
40 *27:6 *41:29 0.000250753
41 *27:6 *41:46 0.000129522
42 *30:12 *54:A1 0.000155992
43 *30:12 *41:14 4.18201e-05
44 *31:10 *54:A1 8.32909e-06
45 *31:10 *41:29 1.73399e-05
46 *39:23 *41:14 7.03869e-05
47 *39:50 *54:A1 0.000148201
48 *39:50 *41:14 6.03681e-05
49 *39:50 *41:18 8.91468e-07
50 *39:50 *41:29 3.90217e-05
51 *40:12 *56:A2 0
52 *40:12 *78:A 0
53 *40:41 *50:B 5.67058e-05
54 *40:53 *41:37 0
55 *40:57 *41:37 0
*RES
1 *68:Q *41:4 23 
2 *41:4 *41:14 19.35 
3 *41:14 *41:18 15.6214 
4 *41:18 *62:A3 23 
5 *41:18 *41:29 8.41 
6 *41:29 *41:37 31.4707 
7 *41:37 *57:B 23 
8 *41:29 *41:46 19.9093 
9 *41:46 *56:A2 38.8493 
10 *41:46 *78:A 44.6493 
11 *41:14 *54:A1 42.0186 
12 *41:4 *50:B 26.3971 
*END

*D_NET *42 0.00398908
*CONN
*I *60:A1 I *D sky130_fd_sc_hd__a21oi_1
*I *63:B I *D sky130_fd_sc_hd__nand2b_1
*I *79:A I *D sky130_fd_sc_hd__buf_1
*I *56:B1 I *D sky130_fd_sc_hd__a21o_1
*I *57:C I *D sky130_fd_sc_hd__nand3_1
*I *69:Q O *D sky130_fd_sc_hd__dfxtp_1
*CAP
1 *60:A1 0
2 *63:B 6.69944e-06
3 *79:A 0.000208171
4 *56:B1 0
5 *57:C 8.44675e-05
6 *69:Q 0.000275234
7 *42:57 0.000381241
8 *42:24 0.000428732
9 *42:20 0.000619403
10 *42:16 0.000271896
11 *42:12 0.000438361
12 counter[0] *42:12 9.33529e-06
13 counter[1] *42:12 1.01436e-05
14 *46:B *42:57 7.1349e-05
15 *56:A1 *79:A 4.06849e-05
16 *56:A2 *42:24 1.86869e-05
17 *58:A *57:C 5.67058e-05
18 *58:B *57:C 5.67058e-05
19 *60:A2 *42:16 2.93845e-05
20 *60:A2 *42:57 0
21 *60:B1 *42:57 0
22 *67:D *42:20 0
23 *67:D *42:57 7.10068e-06
24 *72:A *63:B 1.28818e-05
25 *72:A *42:57 5.94488e-05
26 *77:A *42:12 3.38603e-05
27 *78:A *42:12 0
28 *78:A *42:16 7.88926e-05
29 *78:A *42:20 8.11651e-05
30 *78:A *42:24 3.74442e-05
31 *15:51 *42:57 4.6318e-06
32 *27:6 *57:C 2.4754e-05
33 *31:10 *42:57 0
34 *39:50 *63:B 6.39489e-06
35 *39:50 *42:57 5.50106e-05
36 *40:12 *79:A 7.24365e-05
37 *40:25 *57:C 8.38096e-05
38 *40:25 *79:A 0
39 *40:57 *42:57 0
40 *41:29 *42:57 0.000151267
41 *41:46 *57:C 4.22202e-05
42 *41:46 *79:A 0.000140259
43 *41:46 *42:57 9.02985e-05
*RES
1 *69:Q *42:12 44.5457 
2 *42:12 *42:16 18.48 
3 *42:16 *42:20 17.9621 
4 *42:20 *42:24 17.2579 
5 *42:24 *57:C 26.5007 
6 *42:24 *56:B1 23 
7 *42:24 *79:A 28.4271 
8 *42:20 *42:57 39.4457 
9 *42:57 *63:B 38.1502 
10 *42:16 *60:A1 23 
*END

*D_NET *43 0.00160969
*CONN
*I *80:A I *D sky130_fd_sc_hd__buf_1
*I *64:B1 I *D sky130_fd_sc_hd__a31o_1
*I *65:B I *D sky130_fd_sc_hd__nand4_1
*I *70:Q O *D sky130_fd_sc_hd__dfxtp_1
*CAP
1 *80:A 0.00013873
2 *64:B1 2.50833e-05
3 *65:B 2.29975e-05
4 *70:Q 3.30142e-05
5 *43:16 0.000301032
6 *43:8 0.000424696
7 counter[3] *80:A 6.10551e-06
8 *44:A *65:B 0
9 *44:A *43:8 0
10 *65:A *64:B1 1.22822e-05
11 *65:A *65:B 2.43306e-05
12 *65:A *43:16 6.51499e-05
13 *65:C *64:B1 2.4754e-05
14 *65:D *64:B1 0.00010018
15 *75:A *43:16 4.60185e-05
16 *15:6 *43:16 7.44257e-05
17 *15:21 *64:B1 1.72202e-05
18 *15:21 *43:16 2.93845e-05
19 *33:10 *64:B1 0.000143655
20 *33:10 *65:B 0
21 *35:25 *43:16 0.000120629
*RES
1 *70:Q *43:8 38.6214 
2 *43:8 *43:16 21.6907 
3 *43:16 *65:B 23.7457 
4 *43:16 *64:B1 25.0507 
5 *43:8 *80:A 40.8793 
*END
