*SPEF "ieee 1481-1999"
*DESIGN "counter_dut"
*DATE "10:06:03 Wednesday December 04, 2024"
*VENDOR "The OpenROAD Project"
*PROGRAM "OpenROAD"
*VERSION "edf00dff99f6c40d67a30c0e22a8191c5d2ed9d6"
*DESIGN_FLOW "NAME_SCOPE LOCAL" "PIN_CAP NONE"
*DIVIDER /
*DELIMITER :
*BUS_DELIMITER []
*T_UNIT 1 NS
*C_UNIT 1 PF
*R_UNIT 1 OHM
*L_UNIT 1 HENRY

*NAME_MAP
*1 clk
*2 counter[0]
*3 counter[1]
*4 counter[2]
*5 counter[3]
*6 enable
*7 reset
*8 up_down
*11 _00_
*12 _01_
*13 _02_
*14 _03_
*15 _04_
*16 _05_
*17 _06_
*18 _07_
*19 _08_
*20 _09_
*21 _10_
*22 _11_
*23 _12_
*24 _13_
*25 _14_
*26 _15_
*27 _16_
*28 _17_
*29 _18_
*30 _19_
*31 _20_
*32 _21_
*33 _22_
*34 clknet_0_clk
*35 clknet_1_0__leaf_clk
*36 clknet_1_1__leaf_clk
*37 net1
*38 net2
*39 net3
*40 net4
*41 net5
*42 net6
*43 net7
*44 _23_
*45 _24_
*46 _25_
*47 _26_
*48 _27_
*49 _28_
*50 _29_
*51 _30_
*52 _31_
*53 _32_
*54 _33_
*55 _34_
*56 _35_
*57 _36_
*58 _37_
*59 _38_
*60 _39_
*61 _40_
*62 _41_
*63 _42_
*64 _43_
*65 _44_
*66 _45_
*67 _46_
*68 _47_
*69 _48_
*70 _49_
*71 clkbuf_0_clk
*72 clkbuf_1_0__f_clk
*73 clkbuf_1_1__f_clk
*74 input1
*75 input2
*76 input3
*77 output4
*78 output5
*79 output6
*80 output7

*PORTS
clk I
counter[0] O
counter[1] O
counter[2] O
counter[3] O
enable I
reset I
up_down I

*D_NET *1 0.00172437
*CONN
*P clk I
*I *71:A I *D sky130_fd_sc_hd__clkbuf_16
*CAP
1 clk 0.000749618
2 *71:A 0
3 *1:11 0.000749618
4 *1:11 *46:A 0
5 *1:11 *74:A 5.32136e-05
6 *1:11 *76:A 5.08354e-05
7 *1:11 *34:12 0.000121089
8 *1:11 *41:74 0
*RES
1 clk *1:11 27.1277 
2 *1:11 *71:A 23 
*END

*D_NET *2 0.000370927
*CONN
*P counter[0] O
*I *77:X O *D sky130_fd_sc_hd__buf_2
*CAP
1 counter[0] 0.000155476
2 *77:X 0.000155476
3 counter[0] counter[1] 5.99754e-05
*RES
1 *77:X counter[0] 46.9072 
*END

*D_NET *3 0.000557883
*CONN
*P counter[1] O
*I *78:X O *D sky130_fd_sc_hd__buf_2
*CAP
1 counter[1] 0.00021778
2 *78:X 0.00021778
3 counter[1] counter[2] 6.23473e-05
4 counter[1] *42:10 0
5 counter[0] counter[1] 5.99754e-05
*RES
1 *78:X counter[1] 49.0201 
*END

*D_NET *4 0.000652856
*CONN
*P counter[2] O
*I *79:X O *D sky130_fd_sc_hd__buf_2
*CAP
1 counter[2] 0.000295254
2 *79:X 0.000295254
3 counter[1] counter[2] 6.23473e-05
*RES
1 *79:X counter[2] 47.6028 
*END

*D_NET *5 0.000382474
*CONN
*P counter[3] O
*I *80:X O *D sky130_fd_sc_hd__buf_2
*CAP
1 counter[3] 0.000165819
2 *80:X 0.000165819
3 counter[3] *75:A 5.08354e-05
*RES
1 *80:X counter[3] 46.9072 
*END

*D_NET *6 0.000429573
*CONN
*P enable I
*I *74:A I *D sky130_fd_sc_hd__buf_1
*CAP
1 enable 0.00013581
2 *74:A 0.00013581
3 *74:A *70:CLK 5.39028e-05
4 *74:A *75:A 5.08354e-05
5 *1:11 *74:A 5.32136e-05
*RES
1 enable *74:A 47.8778 
*END

*D_NET *7 0.0004769
*CONN
*P reset I
*I *75:A I *D sky130_fd_sc_hd__buf_1
*CAP
1 reset 0.000153285
2 *75:A 0.000153285
3 *75:A *70:CLK 6.86591e-05
4 counter[3] *75:A 5.08354e-05
5 *74:A *75:A 5.08354e-05
*RES
1 reset *75:A 48.2299 
*END

*D_NET *8 0.000514198
*CONN
*P up_down I
*I *76:A I *D sky130_fd_sc_hd__buf_1
*CAP
1 up_down 0.000231681
2 *76:A 0.000231681
3 *76:A *39:12 0
4 *1:11 *76:A 5.08354e-05
*RES
1 up_down *76:A 48.9342 
*END

*D_NET *11 0.0004137
*CONN
*I *67:D I *D sky130_fd_sc_hd__dfxtp_2
*I *49:Y O *D sky130_fd_sc_hd__o21ai_1
*CAP
1 *67:D 5.80123e-05
2 *49:Y 0.000112551
3 *11:8 0.000170563
4 *67:D *36:10 1.60658e-05
5 *67:D *40:8 5.6508e-05
6 *11:8 *18:34 0
*RES
1 *49:Y *11:8 40.2579 
2 *11:8 *67:D 39.6209 
*END

*D_NET *12 0.000835204
*CONN
*I *68:D I *D sky130_fd_sc_hd__dfxtp_1
*I *55:X O *D sky130_fd_sc_hd__a31o_1
*CAP
1 *68:D 0.000130995
2 *55:X 0.000171151
3 *12:8 0.000302146
4 *68:D *39:6 1.17801e-06
5 *68:D *39:19 2.5862e-05
6 *12:8 *55:A3 0.000203872
7 *12:8 *39:12 0
*RES
1 *55:X *12:8 43.075 
2 *12:8 *68:D 40.5737 
*END

*D_NET *13 0.000672855
*CONN
*I *69:D I *D sky130_fd_sc_hd__dfxtp_1
*I *61:Y O *D sky130_fd_sc_hd__o21ai_1
*CAP
1 *69:D 0
2 *61:Y 0.000227835
3 *13:14 0.000227835
4 *13:14 *60:A1 2.73391e-05
5 *13:14 *61:B1 6.87281e-05
6 *13:14 *18:34 6.86462e-05
7 *13:14 *28:10 2.30292e-05
8 *13:14 *34:12 0
9 *13:14 *40:80 0
10 *13:14 *41:44 2.94414e-05
*RES
1 *61:Y *13:14 28.9657 
2 *13:14 *69:D 23 
*END

*D_NET *14 0.000772485
*CONN
*I *70:D I *D sky130_fd_sc_hd__dfxtp_1
*I *66:X O *D sky130_fd_sc_hd__a31o_1
*CAP
1 *70:D 0
2 *66:X 0.000294749
3 *14:8 0.000294749
4 *14:8 *47:B 0
5 *14:8 *66:A2 4.00259e-06
6 *14:8 *80:A 0
7 *14:8 *15:38 0.000126847
8 *14:8 *18:6 3.81945e-05
9 *14:8 *31:12 0
10 *14:8 *32:10 1.39431e-05
11 *14:8 *38:8 0
*RES
1 *66:X *14:8 29.8823 
2 *14:8 *70:D 23 
*END

*D_NET *15 0.00372799
*CONN
*I *66:A1 I *D sky130_fd_sc_hd__a31o_1
*I *45:B I *D sky130_fd_sc_hd__nand2_1
*I *55:A2 I *D sky130_fd_sc_hd__a31o_1
*I *46:A I *D sky130_fd_sc_hd__nor2_1
*I *44:Y O *D sky130_fd_sc_hd__inv_2
*CAP
1 *66:A1 0
2 *45:B 7.3399e-05
3 *55:A2 0
4 *46:A 0.000290448
5 *44:Y 8.08042e-05
6 *15:38 0.000500288
7 *15:10 0.00036805
8 *15:8 0.000585296
9 *45:B *66:A2 1.14154e-05
10 *45:B *17:34 0.00010018
11 *45:B *17:55 2.86356e-05
12 *45:B *18:6 0
13 *45:B *18:15 0
14 *46:A *50:A 1.76557e-05
15 *46:A *55:A3 0.000640068
16 *46:A *62:A1 0
17 *46:A *39:19 9.91895e-05
18 *46:A *39:23 0
19 *46:A *41:14 0.000191378
20 *46:A *41:74 0
21 *15:8 *31:12 0.000277751
22 *15:8 *37:8 2.9438e-05
23 *15:10 *70:CLK 0
24 *15:10 *37:12 2.31209e-05
25 *15:10 *37:16 0.000122849
26 *15:10 *41:74 0
27 *15:38 *66:A2 4.67488e-05
28 *15:38 *70:CLK 0
29 *15:38 *80:A 0
30 *15:38 *17:55 5.50106e-05
31 *15:38 *32:10 0
32 *15:38 *37:16 5.94125e-05
33 *15:38 *43:8 0
34 *1:11 *46:A 0
35 *14:8 *15:38 0.000126847
*RES
1 *44:Y *15:8 41.0036 
2 *15:8 *15:10 2.25786 
3 *15:10 *46:A 48.295 
4 *15:10 *55:A2 38 
5 *15:8 *15:38 24.57 
6 *15:38 *45:B 25.0714 
7 *15:38 *66:A1 23 
*END

*D_NET *16 0.00247159
*CONN
*I *49:A2 I *D sky130_fd_sc_hd__o21ai_1
*I *61:A1 I *D sky130_fd_sc_hd__o21ai_1
*I *45:Y O *D sky130_fd_sc_hd__nand2_1
*CAP
1 *49:A2 0.000223071
2 *61:A1 0.00011064
3 *45:Y 0.000170564
4 *16:8 0.000504275
5 *49:A2 *49:B1 0.000392386
6 *49:A2 *37:42 9.5877e-05
7 *49:A2 *40:8 0.000117934
8 *49:A2 *40:16 5.73835e-06
9 *49:A2 *40:80 3.53115e-05
10 *49:A2 *42:64 6.68919e-05
11 *61:A1 *65:C 1.01436e-05
12 *61:A1 *17:10 0
13 *61:A1 *17:19 0
14 *61:A1 *26:21 1.14452e-05
15 *61:A1 *30:8 0.000194309
16 *61:A1 *40:16 8.72173e-05
17 *61:A1 *40:22 2.34364e-05
18 *16:8 *45:A 8.15327e-05
19 *16:8 *65:C 0.000184174
20 *16:8 *17:55 0
21 *16:8 *37:42 1.47563e-05
22 *16:8 *40:16 0.000141888
23 *16:8 *41:74 0
*RES
1 *45:Y *16:8 42.3707 
2 *16:8 *61:A1 41.3143 
3 *16:8 *49:A2 44.815 
*END

*D_NET *17 0.00494609
*CONN
*I *54:B1 I *D sky130_fd_sc_hd__a21o_1
*I *66:B1 I *D sky130_fd_sc_hd__a31o_1
*I *48:B1 I *D sky130_fd_sc_hd__a21oi_1
*I *60:B1 I *D sky130_fd_sc_hd__a21oi_1
*I *46:Y O *D sky130_fd_sc_hd__nor2_1
*CAP
1 *54:B1 0
2 *66:B1 0
3 *48:B1 1.70117e-05
4 *60:B1 0
5 *46:Y 0.000166844
6 *17:55 0.000247853
7 *17:34 0.00048254
8 *17:19 0.000471132
9 *17:10 0.000431829
10 *17:8 0.00037924
11 *48:B1 *48:A1 1.24376e-05
12 *48:B1 *18:15 5.50049e-05
13 *48:B1 *40:16 2.32004e-05
14 *17:8 *50:A 0.000310641
15 *17:8 *52:A 2.62931e-05
16 *17:8 *52:B 5.67058e-05
17 *17:8 *57:B 7.44161e-06
18 *17:8 *57:C 0.000356724
19 *17:10 *50:A 0
20 *17:10 *57:C 0.000225275
21 *17:10 *26:21 0
22 *17:10 *27:8 8.86405e-05
23 *17:10 *28:10 3.2457e-05
24 *17:10 *40:30 0
25 *17:10 *42:41 0.000240695
26 *17:19 *45:A 2.08324e-05
27 *17:19 *19:8 0.00014504
28 *17:19 *34:23 0.000111771
29 *17:19 *37:42 2.60152e-05
30 *17:19 *40:16 1.44813e-05
31 *17:19 *42:41 1.14452e-05
32 *17:19 *42:64 0.000186015
33 *17:34 *45:A 0.000152326
34 *17:34 *18:15 0
35 *17:34 *34:23 8.86405e-05
36 *17:55 *45:A 0
37 *17:55 *54:A2 5.90675e-06
38 *17:55 *65:D 5.6048e-05
39 *17:55 *18:6 5.26446e-05
40 *17:55 *33:10 0.000197479
41 *17:55 *41:74 6.16531e-05
42 *17:55 *43:8 0
43 *45:B *17:34 0.00010018
44 *45:B *17:55 2.86356e-05
45 *61:A1 *17:10 0
46 *61:A1 *17:19 0
47 *15:38 *17:55 5.50106e-05
48 *16:8 *17:55 0
*RES
1 *46:Y *17:8 43.8621 
2 *17:8 *17:10 6.48357 
3 *17:10 *60:B1 38 
4 *17:10 *17:19 5.77929 
5 *17:19 *48:B1 38.6214 
6 *17:19 *17:34 21.4421 
7 *17:34 *66:B1 23 
8 *17:34 *17:55 35.8414 
9 *17:55 *54:B1 23 
*END

*D_NET *18 0.00304682
*CONN
*I *60:A2 I *D sky130_fd_sc_hd__a21oi_1
*I *48:A2 I *D sky130_fd_sc_hd__a21oi_1
*I *54:A2 I *D sky130_fd_sc_hd__a21o_1
*I *47:Y O *D sky130_fd_sc_hd__nor2_1
*CAP
1 *60:A2 0
2 *48:A2 2.0995e-05
3 *54:A2 1.89322e-05
4 *47:Y 0.000238596
5 *18:34 0.000361841
6 *18:15 0.000604867
7 *18:6 0.000479558
8 *48:A2 *48:A1 1.14154e-05
9 *54:A2 *65:D 1.14154e-05
10 *18:6 *47:A 4.79544e-05
11 *18:6 *64:B1 0.000227208
12 *18:6 *65:D 0.000108682
13 *18:6 *66:A2 6.62982e-06
14 *18:6 *31:12 1.76557e-05
15 *18:6 *32:10 9.84851e-05
16 *18:15 *45:A 0
17 *18:15 *48:A1 2.32101e-05
18 *18:15 *65:B 2.649e-05
19 *18:15 *65:D 2.4754e-05
20 *18:15 *33:10 1.40958e-05
21 *18:15 *40:8 9.88574e-06
22 *18:15 *40:16 2.63049e-05
23 *18:34 *69:CLK 0.000367628
24 *18:34 *36:10 4.21852e-05
25 *18:34 *40:8 2.94414e-05
26 *18:34 *40:80 8.19644e-06
27 *45:B *18:6 0
28 *45:B *18:15 0
29 *48:B1 *18:15 5.50049e-05
30 *11:8 *18:34 0
31 *13:14 *18:34 6.86462e-05
32 *14:8 *18:6 3.81945e-05
33 *17:34 *18:15 0
34 *17:55 *54:A2 5.90675e-06
35 *17:55 *18:6 5.26446e-05
*RES
1 *47:Y *18:6 29.815 
2 *18:6 *54:A2 23.4971 
3 *18:6 *18:15 4.43286 
4 *18:15 *48:A2 23.4971 
5 *18:15 *18:34 38.9486 
6 *18:34 *60:A2 23 
*END

*D_NET *19 0.00124278
*CONN
*I *49:B1 I *D sky130_fd_sc_hd__o21ai_1
*I *48:Y O *D sky130_fd_sc_hd__a21oi_1
*CAP
1 *49:B1 0.000125181
2 *48:Y 4.15983e-05
3 *19:8 0.000166779
4 *49:B1 *40:80 0.000158344
5 *49:B1 *42:64 9.58714e-05
6 *19:8 *37:42 9.26098e-05
7 *19:8 *40:16 2.49733e-05
8 *49:A2 *49:B1 0.000392386
9 *17:19 *19:8 0.00014504
*RES
1 *48:Y *19:8 39.9057 
2 *19:8 *49:B1 42.4329 
*END

*D_NET *20 0.00107003
*CONN
*I *51:B I *D sky130_fd_sc_hd__or2_1
*I *52:B I *D sky130_fd_sc_hd__nand2_1
*I *50:X O *D sky130_fd_sc_hd__xor2_1
*CAP
1 *51:B 0.000125893
2 *52:B 4.26636e-05
3 *50:X 0.000173801
4 *20:12 0.000342358
5 *51:B *57:B 2.99716e-05
6 *51:B *21:14 0
7 *51:B *22:8 2.76611e-06
8 *51:B *39:23 0.000117254
9 *51:B *41:14 3.26321e-05
10 *51:B *41:38 9.21347e-06
11 *52:B *46:B 1.14154e-05
12 *52:B *50:A 2.18506e-05
13 *52:B *52:A 3.06608e-05
14 *52:B *57:C 9.72057e-06
15 *52:B *39:49 2.53395e-05
16 *20:12 *55:A3 9.33529e-06
17 *20:12 *22:8 2.38166e-05
18 *20:12 *41:14 4.6318e-06
19 *17:8 *52:B 5.67058e-05
*RES
1 *50:X *20:12 40.9207 
2 *20:12 *52:B 39.595 
3 *20:12 *51:B 40.61 
*END

*D_NET *21 0.00173704
*CONN
*I *59:A I *D sky130_fd_sc_hd__xnor2_1
*I *53:A I *D sky130_fd_sc_hd__nand2_1
*I *51:X O *D sky130_fd_sc_hd__or2_1
*CAP
1 *59:A 0.000129028
2 *53:A 0
3 *51:X 0
4 *21:14 0.00035496
5 *21:4 0.000483988
6 *59:A *56:A1 9.5877e-05
7 *59:A *57:B 1.32289e-05
8 *59:A *41:44 0.00012238
9 *21:14 *50:A 2.20722e-05
10 *21:14 *53:B 0.000141954
11 *21:14 *57:B 9.03784e-05
12 *21:14 *22:8 0.000197479
13 *21:14 *23:8 3.22879e-05
14 *21:14 *40:30 4.32584e-05
15 *21:14 *41:38 1.01436e-05
16 *51:B *21:14 0
*RES
1 *51:X *21:4 23 
2 *21:4 *21:14 38.2236 
3 *21:14 *53:A 23 
4 *21:4 *59:A 26.3764 
*END

*D_NET *22 0.000718995
*CONN
*I *53:B I *D sky130_fd_sc_hd__nand2_1
*I *52:Y O *D sky130_fd_sc_hd__nand2_1
*CAP
1 *53:B 5.47429e-05
2 *52:Y 0.000121747
3 *22:8 0.00017649
4 *22:8 *55:A3 0
5 *51:B *22:8 2.76611e-06
6 *20:12 *22:8 2.38166e-05
7 *21:14 *53:B 0.000141954
8 *21:14 *22:8 0.000197479
*RES
1 *52:Y *22:8 40.9621 
2 *22:8 *53:B 39.5743 
*END

*D_NET *23 0.0018385
*CONN
*I *55:A3 I *D sky130_fd_sc_hd__a31o_1
*I *53:Y O *D sky130_fd_sc_hd__nand2_1
*CAP
1 *55:A3 0.000350892
2 *53:Y 8.91733e-05
3 *23:8 0.000440065
4 *55:A3 *39:12 0
5 *55:A3 *41:14 0
6 *23:8 *50:A 7.28081e-05
7 *46:A *55:A3 0.000640068
8 *12:8 *55:A3 0.000203872
9 *20:12 *55:A3 9.33529e-06
10 *21:14 *23:8 3.22879e-05
11 *22:8 *55:A3 0
*RES
1 *53:Y *23:8 40.5271 
2 *23:8 *55:A3 48.3571 
*END

*D_NET *24 0.000628508
*CONN
*I *55:B1 I *D sky130_fd_sc_hd__a31o_1
*I *54:X O *D sky130_fd_sc_hd__a21o_1
*CAP
1 *55:B1 3.63103e-05
2 *54:X 9.46847e-05
3 *24:8 0.000130995
4 *55:B1 *30:20 9.84794e-05
5 *55:B1 *31:12 0
6 *55:B1 *37:42 2.4754e-05
7 *55:B1 *42:64 0.000187129
8 *24:8 *30:20 5.17498e-05
9 *24:8 *37:42 4.40479e-06
10 *24:8 *41:74 0
*RES
1 *54:X *24:8 39.9057 
2 *24:8 *55:B1 40.0507 
*END

*D_NET *25 0.000592966
*CONN
*I *58:A I *D sky130_fd_sc_hd__nand2_1
*I *56:X O *D sky130_fd_sc_hd__a21o_1
*CAP
1 *58:A 0.000163606
2 *56:X 0.000163606
3 *58:A *56:A1 6.09174e-05
4 *58:A *57:C 0.000204837
5 *58:A *58:B 0
*RES
1 *56:X *58:A 49.625 
*END

*D_NET *26 0.00104988
*CONN
*I *62:B1 I *D sky130_fd_sc_hd__o31ai_1
*I *58:B I *D sky130_fd_sc_hd__nand2_1
*I *57:Y O *D sky130_fd_sc_hd__nand3_1
*CAP
1 *62:B1 0
2 *58:B 6.78223e-05
3 *57:Y 0
4 *26:21 0.000141327
5 *26:4 0.000209149
6 *58:B *52:A 0
7 *58:B *56:A1 1.18615e-05
8 *58:B *57:B 3.91386e-05
9 *58:B *57:C 5.41385e-05
10 *26:21 *27:8 5.86165e-05
11 *26:21 *28:10 5.03449e-05
12 *26:21 *40:22 9.26098e-05
13 *26:21 *40:24 0.000195248
14 *26:21 *40:30 0.000118174
15 *58:A *58:B 0
16 *61:A1 *26:21 1.14452e-05
17 *17:10 *26:21 0
*RES
1 *57:Y *26:4 23 
2 *26:4 *58:B 25.0921 
3 *26:4 *26:21 35.075 
4 *26:21 *62:B1 23 
*END

*D_NET *27 0.000390999
*CONN
*I *59:B I *D sky130_fd_sc_hd__xnor2_1
*I *58:Y O *D sky130_fd_sc_hd__nand2_1
*CAP
1 *59:B 1.80505e-05
2 *58:Y 6.16308e-05
3 *27:8 7.96813e-05
4 *59:B *56:A1 2.93747e-05
5 *59:B *41:44 5.50049e-05
6 *17:10 *27:8 8.86405e-05
7 *26:21 *27:8 5.86165e-05
*RES
1 *58:Y *27:8 40.2579 
2 *27:8 *59:B 38.6214 
*END

*D_NET *28 0.000312443
*CONN
*I *61:A2 I *D sky130_fd_sc_hd__o21ai_1
*I *59:Y O *D sky130_fd_sc_hd__xnor2_1
*CAP
1 *61:A2 0
2 *59:Y 5.32158e-05
3 *28:10 5.32158e-05
4 *28:10 *41:44 0.00010018
5 *13:14 *28:10 2.30292e-05
6 *17:10 *28:10 3.2457e-05
7 *26:21 *28:10 5.03449e-05
*RES
1 *59:Y *28:10 40.2993 
2 *28:10 *61:A2 38 
*END

*D_NET *29 0.000157791
*CONN
*I *61:B1 I *D sky130_fd_sc_hd__o21ai_1
*I *60:Y O *D sky130_fd_sc_hd__a21oi_1
*CAP
1 *61:B1 4.45315e-05
2 *60:Y 4.45315e-05
3 *61:B1 *34:12 0
4 *61:B1 *41:74 0
5 *13:14 *61:B1 6.87281e-05
*RES
1 *60:Y *61:B1 47.1186 
*END

*D_NET *30 0.00221346
*CONN
*I *65:C I *D sky130_fd_sc_hd__nand4_1
*I *64:A2 I *D sky130_fd_sc_hd__a31o_1
*I *62:Y O *D sky130_fd_sc_hd__o31ai_1
*CAP
1 *65:C 8.2799e-05
2 *64:A2 0
3 *62:Y 6.94589e-05
4 *30:20 0.000222796
5 *30:8 0.000375054
6 *65:C *41:74 5.6572e-05
7 *30:8 *40:22 0.000117235
8 *30:8 *41:74 2.472e-05
9 *30:20 *65:B 1.19796e-05
10 *30:20 *37:16 9.69224e-05
11 *30:20 *37:42 0.000451163
12 *30:20 *41:74 0
13 *30:20 *42:64 0.000165908
14 *55:B1 *30:20 9.84794e-05
15 *61:A1 *65:C 1.01436e-05
16 *61:A1 *30:8 0.000194309
17 *16:8 *65:C 0.000184174
18 *24:8 *30:20 5.17498e-05
*RES
1 *62:Y *30:8 40.61 
2 *30:8 *30:20 37.9336 
3 *30:20 *64:A2 38 
4 *30:8 *65:C 40.61 
*END

*D_NET *31 0.00209494
*CONN
*I *65:D I *D sky130_fd_sc_hd__nand4_1
*I *64:A3 I *D sky130_fd_sc_hd__a31o_1
*I *63:Y O *D sky130_fd_sc_hd__nand2b_1
*CAP
1 *65:D 0.000128302
2 *64:A3 0
3 *63:Y 0.000258371
4 *31:12 0.000386673
5 *65:D *64:B1 9.84794e-05
6 *65:D *65:B 0.000135957
7 *65:D *33:10 0.000182832
8 *65:D *37:42 5.74317e-06
9 *31:12 *47:A 0.000139346
10 *31:12 *47:B 7.42621e-05
11 *31:12 *64:B1 3.59635e-05
12 *31:12 *65:B 0
13 *31:12 *37:8 8.1796e-05
14 *31:12 *37:42 2.45549e-06
15 *31:12 *38:8 6.84574e-05
16 *31:12 *42:64 0
17 *54:A2 *65:D 1.14154e-05
18 *55:B1 *31:12 0
19 *14:8 *31:12 0
20 *15:8 *31:12 0.000277751
21 *17:55 *65:D 5.6048e-05
22 *18:6 *65:D 0.000108682
23 *18:6 *31:12 1.76557e-05
24 *18:15 *65:D 2.4754e-05
*RES
1 *63:Y *31:12 32.4871 
2 *31:12 *64:A3 23 
3 *31:12 *65:D 27.93 
*END

*D_NET *32 0.000679588
*CONN
*I *66:A2 I *D sky130_fd_sc_hd__a31o_1
*I *64:X O *D sky130_fd_sc_hd__a31o_1
*CAP
1 *66:A2 8.18015e-05
2 *64:X 7.82131e-05
3 *32:10 0.000160015
4 *32:10 *33:10 0.000118174
5 *32:10 *43:8 6.01596e-05
6 *45:B *66:A2 1.14154e-05
7 *14:8 *66:A2 4.00259e-06
8 *14:8 *32:10 1.39431e-05
9 *15:38 *66:A2 4.67488e-05
10 *15:38 *32:10 0
11 *18:6 *66:A2 6.62982e-06
12 *18:6 *32:10 9.84851e-05
*RES
1 *64:X *32:10 40.6514 
2 *32:10 *66:A2 39.595 
*END

*D_NET *33 0.00115417
*CONN
*I *66:A3 I *D sky130_fd_sc_hd__a31o_1
*I *65:Y O *D sky130_fd_sc_hd__nand4_1
*CAP
1 *66:A3 0
2 *65:Y 0.000176969
3 *33:10 0.000176969
4 *33:10 *65:B 0.000242502
5 *33:10 *41:74 2.24973e-05
6 *33:10 *43:8 2.26489e-05
7 *65:D *33:10 0.000182832
8 *17:55 *33:10 0.000197479
9 *18:15 *33:10 1.40958e-05
10 *32:10 *33:10 0.000118174
*RES
1 *65:Y *33:10 43.8414 
2 *33:10 *66:A3 38 
*END

*D_NET *34 0.00228091
*CONN
*I *73:A I *D sky130_fd_sc_hd__clkbuf_16
*I *72:A I *D sky130_fd_sc_hd__clkbuf_16
*I *71:X O *D sky130_fd_sc_hd__clkbuf_16
*CAP
1 *73:A 0
2 *72:A 0
3 *71:X 0
4 *34:23 0.000213797
5 *34:12 0.000308289
6 *34:4 0.000522086
7 *34:12 *60:A1 5.27215e-06
8 *34:12 *62:A1 6.71408e-06
9 *34:12 *62:A2 0
10 *34:12 *62:A3 0
11 *34:12 *40:22 0.000136743
12 *34:12 *40:80 0.000210455
13 *34:12 *41:66 0
14 *34:12 *41:74 4.26853e-05
15 *34:12 *42:64 0.000114856
16 *34:23 *69:CLK 0.000203272
17 *34:23 *36:10 0.000135826
18 *34:23 *42:64 5.94125e-05
19 *61:B1 *34:12 0
20 *1:11 *34:12 0.000121089
21 *13:14 *34:12 0
22 *17:19 *34:23 0.000111771
23 *17:34 *34:23 8.86405e-05
*RES
1 *71:X *34:4 23 
2 *34:4 *34:12 37.8921 
3 *34:12 *72:A 23 
4 *34:4 *34:23 36.1314 
5 *34:23 *73:A 23 
*END

*D_NET *35 0.00144595
*CONN
*I *70:CLK I *D sky130_fd_sc_hd__dfxtp_1
*I *68:CLK I *D sky130_fd_sc_hd__dfxtp_1
*I *72:X O *D sky130_fd_sc_hd__clkbuf_16
*CAP
1 *70:CLK 0.000395217
2 *68:CLK 0.000146613
3 *72:X 0
4 *35:6 0.00054183
5 *68:CLK *39:6 1.56662e-06
6 *68:CLK *39:12 0.000134181
7 *70:CLK *39:12 0.000103975
8 *74:A *70:CLK 5.39028e-05
9 *75:A *70:CLK 6.86591e-05
10 *15:10 *70:CLK 0
11 *15:38 *70:CLK 0
*RES
1 *72:X *35:6 38 
2 *35:6 *68:CLK 41.9357 
3 *35:6 *70:CLK 46.2443 
*END

*D_NET *36 0.00194904
*CONN
*I *67:CLK I *D sky130_fd_sc_hd__dfxtp_2
*I *69:CLK I *D sky130_fd_sc_hd__dfxtp_1
*I *73:X O *D sky130_fd_sc_hd__clkbuf_16
*CAP
1 *67:CLK 0
2 *69:CLK 0.000202223
3 *73:X 0.000364585
4 *36:10 0.000566808
5 *69:CLK *42:41 2.76611e-06
6 *69:CLK *42:64 4.76829e-05
7 *36:10 *40:8 0
8 *67:D *36:10 1.60658e-05
9 *18:34 *69:CLK 0.000367628
10 *18:34 *36:10 4.21852e-05
11 *34:23 *69:CLK 0.000203272
12 *34:23 *36:10 0.000135826
*RES
1 *73:X *36:10 46.2443 
2 *36:10 *69:CLK 44.5457 
3 *36:10 *67:CLK 38 
*END

*D_NET *37 0.00375971
*CONN
*I *55:A1 I *D sky130_fd_sc_hd__a31o_1
*I *45:A I *D sky130_fd_sc_hd__nand2_1
*I *65:A I *D sky130_fd_sc_hd__nand4_1
*I *64:A1 I *D sky130_fd_sc_hd__a31o_1
*I *47:A I *D sky130_fd_sc_hd__nor2_1
*I *74:X O *D sky130_fd_sc_hd__buf_1
*CAP
1 *55:A1 0
2 *45:A 0.000108756
3 *65:A 0
4 *64:A1 0
5 *47:A 6.47584e-05
6 *74:X 0.000216635
7 *37:42 0.000448106
8 *37:16 0.000119008
9 *37:12 0.000406547
10 *37:8 0.000229584
11 *47:A *64:B1 5.3304e-05
12 *37:8 *38:8 0
13 *37:8 *42:64 0.000266644
14 *37:42 *65:B 0.000135872
15 *37:42 *40:16 0.000128697
16 *37:42 *42:64 8.48502e-06
17 *49:A2 *37:42 9.5877e-05
18 *55:B1 *37:42 2.4754e-05
19 *65:D *37:42 5.74317e-06
20 *15:8 *37:8 2.9438e-05
21 *15:10 *37:12 2.31209e-05
22 *15:10 *37:16 0.000122849
23 *15:38 *37:16 5.94125e-05
24 *16:8 *45:A 8.15327e-05
25 *16:8 *37:42 1.47563e-05
26 *17:19 *45:A 2.08324e-05
27 *17:19 *37:42 2.60152e-05
28 *17:34 *45:A 0.000152326
29 *17:55 *45:A 0
30 *18:6 *47:A 4.79544e-05
31 *18:15 *45:A 0
32 *19:8 *37:42 9.26098e-05
33 *24:8 *37:42 4.40479e-06
34 *30:20 *37:16 9.69224e-05
35 *30:20 *37:42 0.000451163
36 *31:12 *47:A 0.000139346
37 *31:12 *37:8 8.1796e-05
38 *31:12 *37:42 2.45549e-06
*RES
1 *74:X *37:8 28.8829 
2 *37:8 *37:12 15.3211 
3 *37:12 *37:16 17.4339 
4 *37:16 *47:A 25.0714 
5 *37:16 *64:A1 23 
6 *37:12 *37:42 40.0154 
7 *37:42 *65:A 38 
8 *37:42 *45:A 41.5836 
9 *37:8 *55:A1 23 
*END

*D_NET *38 0.000449401
*CONN
*I *47:B I *D sky130_fd_sc_hd__nor2_1
*I *44:A I *D sky130_fd_sc_hd__inv_2
*I *75:X O *D sky130_fd_sc_hd__buf_1
*CAP
1 *47:B 4.86946e-05
2 *44:A 0
3 *75:X 0.000104646
4 *38:8 0.000153341
5 *14:8 *47:B 0
6 *14:8 *38:8 0
7 *31:12 *47:B 7.42621e-05
8 *31:12 *38:8 6.84574e-05
9 *37:8 *38:8 0
*RES
1 *75:X *38:8 25.4236 
2 *38:8 *44:A 23 
3 *38:8 *47:B 24.5743 
*END

*D_NET *39 0.00313056
*CONN
*I *52:A I *D sky130_fd_sc_hd__nand2_1
*I *46:B I *D sky130_fd_sc_hd__nor2_1
*I *62:A1 I *D sky130_fd_sc_hd__o31ai_1
*I *51:A I *D sky130_fd_sc_hd__or2_1
*I *63:A_N I *D sky130_fd_sc_hd__nand2b_1
*I *76:X O *D sky130_fd_sc_hd__buf_1
*CAP
1 *52:A 5.60794e-05
2 *46:B 1.33077e-05
3 *62:A1 0.000220848
4 *51:A 6.64116e-05
5 *63:A_N 0
6 *76:X 6.03705e-05
7 *39:49 0.000139216
8 *39:23 0.000343817
9 *39:19 0.000401768
10 *39:12 0.000280697
11 *39:6 0.00061645
12 *51:A *41:14 6.17437e-06
13 *51:A *41:23 7.44257e-05
14 *52:A *57:B 5.90075e-05
15 *52:A *57:C 1.14154e-05
16 *52:A *41:23 2.65879e-05
17 *62:A1 *40:22 0
18 *62:A1 *41:38 0
19 *62:A1 *41:66 6.17437e-06
20 *62:A1 *41:74 0
21 *62:A1 *42:64 0
22 *39:19 *50:A 1.14762e-05
23 *39:19 *41:14 3.00171e-05
24 *39:23 *41:14 9.03784e-05
25 *39:23 *41:38 0
26 *39:49 *50:A 2.80924e-06
27 *39:49 *57:B 0
28 *39:49 *41:14 3.7122e-06
29 *39:49 *41:23 2.57853e-05
30 *46:A *62:A1 0
31 *46:A *39:19 9.91895e-05
32 *46:A *39:23 0
33 *51:B *39:23 0.000117254
34 *52:B *46:B 1.14154e-05
35 *52:B *52:A 3.06608e-05
36 *52:B *39:49 2.53395e-05
37 *55:A3 *39:12 0
38 *58:B *52:A 0
39 *68:CLK *39:6 1.56662e-06
40 *68:CLK *39:12 0.000134181
41 *68:D *39:6 1.17801e-06
42 *68:D *39:19 2.5862e-05
43 *70:CLK *39:12 0.000103975
44 *76:A *39:12 0
45 *12:8 *39:12 0
46 *17:8 *52:A 2.62931e-05
47 *34:12 *62:A1 6.71408e-06
*RES
1 *76:X *39:6 24.0979 
2 *39:6 *39:12 37.54 
3 *39:12 *63:A_N 23 
4 *39:6 *39:19 5.86214 
5 *39:19 *39:23 16.9057 
6 *39:23 *51:A 39.5743 
7 *39:23 *62:A1 43.365 
8 *39:19 *39:49 1.74 
9 *39:49 *46:B 23.4971 
10 *39:49 *52:A 25.0714 
*END

*D_NET *40 0.00745343
*CONN
*I *48:A1 I *D sky130_fd_sc_hd__a21oi_1
*I *77:A I *D sky130_fd_sc_hd__buf_2
*I *49:A1 I *D sky130_fd_sc_hd__o21ai_1
*I *62:A2 I *D sky130_fd_sc_hd__o31ai_1
*I *56:A1 I *D sky130_fd_sc_hd__a21o_1
*I *57:A I *D sky130_fd_sc_hd__nand3_1
*I *50:A I *D sky130_fd_sc_hd__xor2_1
*I *67:Q O *D sky130_fd_sc_hd__dfxtp_2
*CAP
1 *48:A1 4.81193e-05
2 *77:A 0.000165822
3 *49:A1 0
4 *62:A2 4.24393e-05
5 *56:A1 0.00023706
6 *57:A 0
7 *50:A 0.000382525
8 *67:Q 0.000304121
9 *40:80 0.000427953
10 *40:30 0.000515395
11 *40:24 0.000464708
12 *40:22 0.000270915
13 *40:16 0.000564051
14 *40:8 0.000520462
15 *48:A1 *65:B 0
16 *50:A *41:14 0.000185434
17 *56:A1 *57:B 2.45549e-06
18 *56:A1 *57:C 0
19 *56:A1 *41:44 5.06321e-05
20 *56:A1 *42:22 0.000111596
21 *56:A1 *42:26 0.000115705
22 *62:A2 *62:A3 4.34745e-05
23 *62:A2 *41:44 3.38726e-05
24 *62:A2 *41:66 3.49686e-05
25 *77:A *42:10 0
26 *40:8 *65:B 0
27 *40:22 *41:66 0
28 *40:22 *41:74 0.000105873
29 *40:22 *42:64 0.000135037
30 *40:24 *41:38 0
31 *40:24 *41:66 0
32 *40:30 *41:38 0
33 *40:80 *42:64 0.000181125
34 *46:A *50:A 1.76557e-05
35 *48:A2 *48:A1 1.14154e-05
36 *48:B1 *48:A1 1.24376e-05
37 *48:B1 *40:16 2.32004e-05
38 *49:A2 *40:8 0.000117934
39 *49:A2 *40:16 5.73835e-06
40 *49:A2 *40:80 3.53115e-05
41 *49:B1 *40:80 0.000158344
42 *52:B *50:A 2.18506e-05
43 *58:A *56:A1 6.09174e-05
44 *58:B *56:A1 1.18615e-05
45 *59:A *56:A1 9.5877e-05
46 *59:B *56:A1 2.93747e-05
47 *61:A1 *40:16 8.72173e-05
48 *61:A1 *40:22 2.34364e-05
49 *62:A1 *40:22 0
50 *67:D *40:8 5.6508e-05
51 *13:14 *40:80 0
52 *16:8 *40:16 0.000141888
53 *17:8 *50:A 0.000310641
54 *17:10 *50:A 0
55 *17:10 *40:30 0
56 *17:19 *40:16 1.44813e-05
57 *18:15 *48:A1 2.32101e-05
58 *18:15 *40:8 9.88574e-06
59 *18:15 *40:16 2.63049e-05
60 *18:34 *40:8 2.94414e-05
61 *18:34 *40:80 8.19644e-06
62 *19:8 *40:16 2.49733e-05
63 *21:14 *50:A 2.20722e-05
64 *21:14 *40:30 4.32584e-05
65 *23:8 *50:A 7.28081e-05
66 *26:21 *40:22 9.26098e-05
67 *26:21 *40:24 0.000195248
68 *26:21 *40:30 0.000118174
69 *30:8 *40:22 0.000117235
70 *34:12 *62:A2 0
71 *34:12 *40:22 0.000136743
72 *34:12 *40:80 0.000210455
73 *36:10 *40:8 0
74 *37:42 *40:16 0.000128697
75 *39:19 *50:A 1.14762e-05
76 *39:49 *50:A 2.80924e-06
*RES
1 *67:Q *40:8 32.2179 
2 *40:8 *40:16 34.5364 
3 *40:16 *40:22 19.8886 
4 *40:22 *40:24 2.61 
5 *40:24 *40:30 3.02429 
6 *40:30 *50:A 47.9843 
7 *40:30 *57:A 38 
8 *40:24 *56:A1 44.5043 
9 *40:22 *62:A2 39.3361 
10 *40:16 *40:80 7.31214 
11 *40:80 *49:A1 23 
12 *40:80 *77:A 26.48 
13 *40:8 *48:A1 24.6157 
*END

*D_NET *41 0.00507139
*CONN
*I *62:A3 I *D sky130_fd_sc_hd__o31ai_1
*I *54:A1 I *D sky130_fd_sc_hd__a21o_1
*I *78:A I *D sky130_fd_sc_hd__buf_2
*I *56:A2 I *D sky130_fd_sc_hd__a21o_1
*I *57:B I *D sky130_fd_sc_hd__nand3_1
*I *50:B I *D sky130_fd_sc_hd__xor2_1
*I *68:Q O *D sky130_fd_sc_hd__dfxtp_1
*CAP
1 *62:A3 1.72623e-05
2 *54:A1 0
3 *78:A 0.000225127
4 *56:A2 2.1727e-05
5 *57:B 0.00012085
6 *50:B 0
7 *68:Q 0
8 *41:74 0.000320281
9 *41:66 0.000461546
10 *41:44 0.000560161
11 *41:38 0.000540024
12 *41:23 0.000298517
13 *41:14 0.000157508
14 *41:4 0.000232461
15 *56:A2 *42:22 4.00259e-06
16 *57:B *57:C 4.06849e-05
17 *78:A *42:10 2.07145e-05
18 *78:A *42:22 0.000201774
19 *41:44 *42:22 4.75937e-05
20 *41:44 *42:26 7.88926e-05
21 *46:A *41:14 0.000191378
22 *46:A *41:74 0
23 *50:A *41:14 0.000185434
24 *51:A *41:14 6.17437e-06
25 *51:A *41:23 7.44257e-05
26 *51:B *57:B 2.99716e-05
27 *51:B *41:14 3.26321e-05
28 *51:B *41:38 9.21347e-06
29 *52:A *57:B 5.90075e-05
30 *52:A *41:23 2.65879e-05
31 *55:A3 *41:14 0
32 *56:A1 *57:B 2.45549e-06
33 *56:A1 *41:44 5.06321e-05
34 *58:B *57:B 3.91386e-05
35 *59:A *57:B 1.32289e-05
36 *59:A *41:44 0.00012238
37 *59:B *41:44 5.50049e-05
38 *61:B1 *41:74 0
39 *62:A1 *41:38 0
40 *62:A1 *41:66 6.17437e-06
41 *62:A1 *41:74 0
42 *62:A2 *62:A3 4.34745e-05
43 *62:A2 *41:44 3.38726e-05
44 *62:A2 *41:66 3.49686e-05
45 *65:C *41:74 5.6572e-05
46 *1:11 *41:74 0
47 *13:14 *41:44 2.94414e-05
48 *15:10 *41:74 0
49 *16:8 *41:74 0
50 *17:8 *57:B 7.44161e-06
51 *17:55 *41:74 6.16531e-05
52 *20:12 *41:14 4.6318e-06
53 *21:14 *57:B 9.03784e-05
54 *21:14 *41:38 1.01436e-05
55 *24:8 *41:74 0
56 *28:10 *41:44 0.00010018
57 *30:8 *41:74 2.472e-05
58 *30:20 *41:74 0
59 *33:10 *41:74 2.24973e-05
60 *34:12 *62:A3 0
61 *34:12 *41:66 0
62 *34:12 *41:74 4.26853e-05
63 *39:19 *41:14 3.00171e-05
64 *39:23 *41:14 9.03784e-05
65 *39:23 *41:38 0
66 *39:49 *57:B 0
67 *39:49 *41:14 3.7122e-06
68 *39:49 *41:23 2.57853e-05
69 *40:22 *41:66 0
70 *40:22 *41:74 0.000105873
71 *40:24 *41:38 0
72 *40:24 *41:66 0
73 *40:30 *41:38 0
*RES
1 *68:Q *41:4 23 
2 *41:4 *41:14 34.93 
3 *41:14 *50:B 23 
4 *41:4 *41:23 17.0507 
5 *41:23 *57:B 41.7493 
6 *41:23 *41:38 1.55357 
7 *41:38 *41:44 23.7414 
8 *41:44 *56:A2 23.4971 
9 *41:44 *78:A 28.8829 
10 *41:38 *41:66 18.0036 
11 *41:66 *41:74 37.3329 
12 *41:74 *54:A1 23 
13 *41:66 *62:A3 23.6214 
*END

*D_NET *42 0.00620933
*CONN
*I *79:A I *D sky130_fd_sc_hd__buf_2
*I *56:B1 I *D sky130_fd_sc_hd__a21o_1
*I *63:B I *D sky130_fd_sc_hd__nand2b_1
*I *60:A1 I *D sky130_fd_sc_hd__a21oi_1
*I *57:C I *D sky130_fd_sc_hd__nand3_1
*I *69:Q O *D sky130_fd_sc_hd__dfxtp_1
*CAP
1 *79:A 0
2 *56:B1 0
3 *63:B 0
4 *60:A1 2.87484e-05
5 *57:C 0.000305049
6 *69:Q 0.000249433
7 *42:64 0.000515428
8 *42:41 0.000686777
9 *42:26 0.0004786
10 *42:22 0.000220583
11 *42:12 0.000189633
12 *42:10 0.000249433
13 counter[1] *42:10 0
14 *49:A2 *42:64 6.68919e-05
15 *49:B1 *42:64 9.58714e-05
16 *52:A *57:C 1.14154e-05
17 *52:B *57:C 9.72057e-06
18 *55:B1 *42:64 0.000187129
19 *56:A1 *57:C 0
20 *56:A1 *42:22 0.000111596
21 *56:A1 *42:26 0.000115705
22 *56:A2 *42:22 4.00259e-06
23 *57:B *57:C 4.06849e-05
24 *58:A *57:C 0.000204837
25 *58:B *57:C 5.41385e-05
26 *62:A1 *42:64 0
27 *69:CLK *42:41 2.76611e-06
28 *69:CLK *42:64 4.76829e-05
29 *77:A *42:10 0
30 *78:A *42:10 2.07145e-05
31 *78:A *42:22 0.000201774
32 *13:14 *60:A1 2.73391e-05
33 *17:8 *57:C 0.000356724
34 *17:10 *57:C 0.000225275
35 *17:10 *42:41 0.000240695
36 *17:19 *42:41 1.14452e-05
37 *17:19 *42:64 0.000186015
38 *30:20 *42:64 0.000165908
39 *31:12 *42:64 0
40 *34:12 *60:A1 5.27215e-06
41 *34:12 *42:64 0.000114856
42 *34:23 *42:64 5.94125e-05
43 *37:8 *42:64 0.000266644
44 *37:42 *42:64 8.48502e-06
45 *40:22 *42:64 0.000135037
46 *40:80 *42:64 0.000181125
47 *41:44 *42:22 4.75937e-05
48 *41:44 *42:26 7.88926e-05
*RES
1 *69:Q *42:10 42.785 
2 *42:10 *42:12 15 
3 *42:12 *42:22 6.19357 
4 *42:22 *42:26 16.5743 
5 *42:26 *57:C 45.8921 
6 *42:26 *42:41 3.31429 
7 *42:41 *60:A1 38.6214 
8 *42:41 *42:64 31.1054 
9 *42:64 *63:B 23 
10 *42:22 *56:B1 23 
11 *42:12 *79:A 23 
*END

*D_NET *43 0.00291917
*CONN
*I *80:A I *D sky130_fd_sc_hd__buf_2
*I *64:B1 I *D sky130_fd_sc_hd__a31o_1
*I *65:B I *D sky130_fd_sc_hd__nand4_1
*I *70:Q O *D sky130_fd_sc_hd__dfxtp_1
*CAP
1 *80:A 0.000450064
2 *64:B1 6.16292e-05
3 *65:B 0.00024803
4 *70:Q 0
5 *43:8 0.000484239
6 *43:6 0.000624644
7 *47:A *64:B1 5.3304e-05
8 *48:A1 *65:B 0
9 *65:D *64:B1 9.84794e-05
10 *65:D *65:B 0.000135957
11 *14:8 *80:A 0
12 *15:38 *80:A 0
13 *15:38 *43:8 0
14 *17:55 *43:8 0
15 *18:6 *64:B1 0.000227208
16 *18:15 *65:B 2.649e-05
17 *30:20 *65:B 1.19796e-05
18 *31:12 *64:B1 3.59635e-05
19 *31:12 *65:B 0
20 *32:10 *43:8 6.01596e-05
21 *33:10 *65:B 0.000242502
22 *33:10 *43:8 2.26489e-05
23 *37:42 *65:B 0.000135872
24 *40:8 *65:B 0
*RES
1 *70:Q *43:6 38 
2 *43:6 *43:8 3.66643 
3 *43:8 *65:B 45.3691 
4 *43:8 *64:B1 40.5271 
5 *43:6 *80:A 47.0729 
*END
