*SPEF "ieee 1481-1999"
*DESIGN "counter_dut"
*DATE "10:04:13 Wednesday December 04, 2024"
*VENDOR "The OpenROAD Project"
*PROGRAM "OpenROAD"
*VERSION "edf00dff99f6c40d67a30c0e22a8191c5d2ed9d6"
*DESIGN_FLOW "NAME_SCOPE LOCAL" "PIN_CAP NONE"
*DIVIDER /
*DELIMITER :
*BUS_DELIMITER []
*T_UNIT 1 NS
*C_UNIT 1 PF
*R_UNIT 1 OHM
*L_UNIT 1 HENRY

*NAME_MAP
*1 clock
*2 counter[0]
*3 counter[1]
*4 counter[2]
*5 counter[3]
*6 enable
*7 reset
*8 up_down
*11 _00_
*12 _01_
*13 _02_
*14 _03_
*15 _04_
*16 _05_
*17 _06_
*18 _07_
*19 _08_
*20 _09_
*21 _10_
*22 _11_
*23 _12_
*24 _13_
*25 _14_
*26 _15_
*27 _16_
*28 _17_
*29 _18_
*30 _19_
*31 _20_
*32 _21_
*33 _22_
*34 net1
*35 net2
*36 net3
*37 net4
*38 net5
*39 net6
*40 net7
*41 net8
*42 _23_
*43 _24_
*44 _25_
*45 _26_
*46 _27_
*47 _28_
*48 _29_
*49 _30_
*50 _31_
*51 _32_
*52 _33_
*53 _34_
*54 _35_
*55 _36_
*56 _37_
*57 _38_
*58 _39_
*59 _40_
*60 _41_
*61 _42_
*62 _43_
*63 _44_
*64 _45_
*65 _46_
*66 _47_
*67 _48_
*68 _49_
*69 input1
*70 input2
*71 input3
*72 input4
*73 output5
*74 output6
*75 output7
*76 output8

*PORTS
clock I
counter[0] O
counter[1] O
counter[2] O
counter[3] O
enable I
reset I
up_down I

*D_NET *1 0.000512933
*CONN
*P clock I
*I *69:A I *D sky130_fd_sc_hd__buf_1
*CAP
1 clock 0.000145838
2 *69:A 0.000145838
3 *69:A *61:A_N 0
4 *69:A *66:CLK 0.000111059
5 *69:A *70:A 5.38666e-05
6 *69:A *72:A 5.63302e-05
*RES
1 clock *69:A 6.20197 
*END

*D_NET *2 0.000386136
*CONN
*P counter[0] O
*I *73:X O *D sky130_fd_sc_hd__buf_2
*CAP
1 counter[0] 0.000161297
2 *73:X 0.000161297
3 counter[0] counter[1] 6.35417e-05
*RES
1 *73:X counter[0] 5.24023 
*END

*D_NET *3 0.00039869
*CONN
*P counter[1] O
*I *74:X O *D sky130_fd_sc_hd__buf_2
*CAP
1 counter[1] 0.000116242
2 *74:X 0.000116242
3 counter[1] counter[2] 6.35417e-05
4 counter[1] *75:A 3.91226e-05
5 counter[0] counter[1] 6.35417e-05
*RES
1 *74:X counter[1] 5.24023 
*END

*D_NET *4 0.000358064
*CONN
*P counter[2] O
*I *75:X O *D sky130_fd_sc_hd__buf_2
*CAP
1 counter[2] 0.000147261
2 *75:X 0.000147261
3 counter[1] counter[2] 6.35417e-05
*RES
1 *75:X counter[2] 4.98523 
*END

*D_NET *5 0.000370679
*CONN
*P counter[3] O
*I *76:X O *D sky130_fd_sc_hd__buf_2
*CAP
1 counter[3] 0.000158406
2 *76:X 0.000158406
3 counter[3] *70:A 0
4 counter[3] *71:A 5.38666e-05
*RES
1 *76:X counter[3] 4.73023 
*END

*D_NET *6 0.000604688
*CONN
*P enable I
*I *70:A I *D sky130_fd_sc_hd__buf_1
*CAP
1 enable 0.000227475
2 *70:A 0.000227475
3 *70:A *71:A 6.58337e-05
4 *70:A *34:27 0
5 *70:A *36:8 3.00381e-05
6 *70:A *41:10 0
7 counter[3] *70:A 0
8 *69:A *70:A 5.38666e-05
*RES
1 enable *70:A 6.80023 
*END

*D_NET *7 0.00041899
*CONN
*P reset I
*I *71:A I *D sky130_fd_sc_hd__buf_1
*CAP
1 reset 0.000149645
2 *71:A 0.000149645
3 *71:A *34:27 0
4 *71:A *35:12 0
5 counter[3] *71:A 5.38666e-05
6 *70:A *71:A 6.58337e-05
*RES
1 reset *71:A 5.69197 
*END

*D_NET *8 0.000272195
*CONN
*P up_down I
*I *72:A I *D sky130_fd_sc_hd__buf_1
*CAP
1 up_down 0.000107932
2 *72:A 0.000107932
3 *69:A *72:A 5.63302e-05
*RES
1 up_down *72:A 4.67197 
*END

*D_NET *11 0.000281859
*CONN
*I *65:D I *D sky130_fd_sc_hd__dfxtp_1
*I *47:Y O *D sky130_fd_sc_hd__o21ai_1
*CAP
1 *65:D 8.77853e-05
2 *47:Y 8.77853e-05
3 *65:D *67:CLK 0.000106289
*RES
1 *47:Y *65:D 9.00375 
*END

*D_NET *12 0.000522395
*CONN
*I *66:D I *D sky130_fd_sc_hd__dfxtp_1
*I *53:X O *D sky130_fd_sc_hd__a31o_1
*CAP
1 *66:D 0.000134359
2 *53:X 0.000134359
3 *66:D *53:A3 5.74095e-05
4 *66:D *60:A1 0
5 *66:D *61:A_N 0
6 *66:D *31:10 0
7 *66:D *34:27 7.13674e-05
8 *66:D *37:8 0
9 *66:D *37:38 0.0001249
*RES
1 *53:X *66:D 10.5337 
*END

*D_NET *13 0.000328044
*CONN
*I *67:D I *D sky130_fd_sc_hd__dfxtp_1
*I *59:Y O *D sky130_fd_sc_hd__o21ai_1
*CAP
1 *67:D 6.14752e-05
2 *59:Y 6.14752e-05
3 *67:D *59:B1 5.47453e-05
4 *67:D *67:CLK 7.66593e-05
5 *67:D *40:8 7.36892e-05
*RES
1 *59:Y *67:D 9.00375 
*END

*D_NET *14 0.000491177
*CONN
*I *68:D I *D sky130_fd_sc_hd__dfxtp_1
*I *64:X O *D sky130_fd_sc_hd__a31o_1
*CAP
1 *68:D 8.19119e-05
2 *64:X 8.19119e-05
3 *68:D *64:A2 5.66845e-06
4 *68:D *64:A3 5.74016e-05
5 *68:D *34:27 0.000264283
6 *68:D *36:8 0
*RES
1 *64:X *68:D 9.84375 
*END

*D_NET *15 0.00204843
*CONN
*I *43:B I *D sky130_fd_sc_hd__nand2_1
*I *53:A2 I *D sky130_fd_sc_hd__a31o_1
*I *44:A I *D sky130_fd_sc_hd__nor2_1
*I *64:A1 I *D sky130_fd_sc_hd__a31o_1
*I *42:Y O *D sky130_fd_sc_hd__inv_2
*CAP
1 *43:B 1.34781e-05
2 *53:A2 6.93132e-05
3 *44:A 7.05101e-05
4 *64:A1 7.17436e-05
5 *42:Y 2.46132e-05
6 *15:25 0.000218177
7 *15:10 0.000224822
8 *15:6 0.000112815
9 *43:B *42:A 9.53428e-06
10 *43:B *45:B 3.60724e-06
11 *44:A *52:A1 0.000122548
12 *44:A *53:A1 7.23533e-05
13 *44:A *64:B1 0
14 *44:A *30:12 0
15 *44:A *40:35 3.84331e-05
16 *53:A2 *53:A1 2.16833e-05
17 *53:A2 *53:B1 0.000123225
18 *53:A2 *61:B 6.26945e-05
19 *53:A2 *17:21 0
20 *53:A2 *31:10 0.000122337
21 *53:A2 *37:38 0
22 *64:A1 *64:A2 0.000142842
23 *64:A1 *36:8 0.000145378
24 *15:6 *42:A 2.30292e-05
25 *15:6 *16:6 1.61831e-05
26 *15:6 *34:31 1.16646e-05
27 *15:10 *42:A 7.60965e-05
28 *15:10 *45:B 2.28653e-05
29 *15:10 *64:A2 9.25211e-06
30 *15:10 *34:31 1.67424e-05
31 *15:10 *36:8 1.93437e-05
32 *15:25 *53:A1 0.000154488
33 *15:25 *40:35 2.86623e-05
*RES
1 *42:Y *15:6 2.395 
2 *15:6 *15:10 2.1 
3 *15:10 *64:A1 3.895 
4 *15:10 *15:25 3.89 
5 *15:25 *44:A 5.745 
6 *15:25 *53:A2 5.775 
7 *15:6 *43:B 1.96 
*END

*D_NET *16 0.00156047
*CONN
*I *47:A2 I *D sky130_fd_sc_hd__o21ai_1
*I *59:A1 I *D sky130_fd_sc_hd__o21ai_1
*I *43:Y O *D sky130_fd_sc_hd__nand2_1
*CAP
1 *47:A2 1.10609e-05
2 *59:A1 6.96344e-05
3 *43:Y 0.000105258
4 *16:6 0.000185953
5 *47:A2 *46:A2 3.74161e-05
6 *47:A2 *38:25 1.47347e-05
7 *47:A2 *38:31 5.83121e-06
8 *59:A1 *46:B1 6.26489e-05
9 *59:A1 *59:B1 0.000212505
10 *59:A1 *38:31 0.000323876
11 *16:6 *42:A 8.8266e-05
12 *16:6 *46:A2 0.000122325
13 *16:6 *18:6 0.000279787
14 *16:6 *34:31 0
15 *16:6 *38:31 2.49909e-05
16 *15:6 *16:6 1.61831e-05
*RES
1 *43:Y *16:6 5.155 
2 *16:6 *59:A1 9.275 
3 *16:6 *47:A2 2.05 
*END

*D_NET *17 0.00272705
*CONN
*I *46:B1 I *D sky130_fd_sc_hd__a21oi_1
*I *58:B1 I *D sky130_fd_sc_hd__a21oi_1
*I *52:B1 I *D sky130_fd_sc_hd__a21o_1
*I *64:B1 I *D sky130_fd_sc_hd__a31o_1
*I *44:Y O *D sky130_fd_sc_hd__nor2_1
*CAP
1 *46:B1 0.000153631
2 *58:B1 0
3 *52:B1 5.0217e-05
4 *64:B1 0.000154352
5 *44:Y 0
6 *17:34 0.00028808
7 *17:21 0.000333909
8 *17:4 0.000303595
9 *46:B1 *46:A2 1.88232e-05
10 *46:B1 *47:B1 4.99619e-05
11 *46:B1 *59:B1 9.50342e-06
12 *46:B1 *67:CLK 1.16578e-05
13 *46:B1 *18:8 0
14 *46:B1 *38:25 8.65961e-05
15 *46:B1 *38:31 1.73877e-05
16 *46:B1 *40:8 9.80943e-06
17 *52:B1 *52:A1 8.40269e-05
18 *52:B1 *52:A2 4.99619e-05
19 *52:B1 *53:A1 5.4155e-06
20 *52:B1 *61:B 1.4389e-05
21 *52:B1 *40:18 2.10134e-05
22 *64:B1 *44:B 5.05521e-05
23 *64:B1 *53:A1 7.1994e-05
24 *64:B1 *30:12 0.000178444
25 *64:B1 *31:10 0.000141606
26 *64:B1 *37:38 5.83121e-06
27 *64:B1 *38:50 2.65814e-06
28 *64:B1 *39:8 2.8585e-06
29 *17:21 *52:A1 3.03775e-05
30 *17:21 *53:A1 4.05674e-06
31 *17:21 *38:50 6.92065e-05
32 *17:34 *46:A2 0
33 *17:34 *52:A2 0.000200615
34 *17:34 *58:A2 3.83041e-05
35 *17:34 *67:CLK 0
36 *17:34 *18:8 0
37 *17:34 *38:50 0
38 *17:34 *40:8 8.23457e-05
39 *17:34 *40:18 0.000123225
40 *44:A *64:B1 0
41 *53:A2 *17:21 0
42 *59:A1 *46:B1 6.26489e-05
*RES
1 *44:Y *17:4 1.6 
2 *17:4 *64:B1 10.16 
3 *17:4 *17:21 3.3 
4 *17:21 *52:B1 3.445 
5 *17:21 *17:34 3.57 
6 *17:34 *58:B1 1.6 
7 *17:34 *46:B1 9.455 
*END

*D_NET *18 0.00194246
*CONN
*I *46:A2 I *D sky130_fd_sc_hd__a21oi_1
*I *58:A2 I *D sky130_fd_sc_hd__a21oi_1
*I *52:A2 I *D sky130_fd_sc_hd__a21o_1
*I *45:Y O *D sky130_fd_sc_hd__nor2_1
*CAP
1 *46:A2 0.000194723
2 *58:A2 1.52336e-05
3 *52:A2 5.00649e-05
4 *45:Y 6.71869e-05
5 *18:8 0.000159811
6 *18:6 0.000356423
7 *46:A2 *47:B1 4.37709e-05
8 *46:A2 *67:CLK 0
9 *46:A2 *38:21 1.17409e-05
10 *46:A2 *38:25 3.13357e-05
11 *46:A2 *40:8 0
12 *52:A2 *40:18 8.31082e-05
13 *18:6 *42:A 3.90495e-05
14 *18:6 *61:B 1.83756e-05
15 *18:6 *36:8 1.16578e-05
16 *18:6 *40:18 0.000112751
17 *46:B1 *46:A2 1.88232e-05
18 *46:B1 *18:8 0
19 *47:A2 *46:A2 3.74161e-05
20 *52:B1 *52:A2 4.99619e-05
21 *16:6 *46:A2 0.000122325
22 *16:6 *18:6 0.000279787
23 *17:34 *46:A2 0
24 *17:34 *52:A2 0.000200615
25 *17:34 *58:A2 3.83041e-05
26 *17:34 *18:8 0
*RES
1 *45:Y *18:6 4.81 
2 *18:6 *18:8 1.635 
3 *18:8 *52:A2 3.775 
4 *18:8 *58:A2 2.05 
5 *18:6 *46:A2 6.025 
*END

*D_NET *19 0.000137622
*CONN
*I *47:B1 I *D sky130_fd_sc_hd__o21ai_1
*I *46:Y O *D sky130_fd_sc_hd__a21oi_1
*CAP
1 *47:B1 2.19447e-05
2 *46:Y 2.19447e-05
3 *46:A2 *47:B1 4.37709e-05
4 *46:B1 *47:B1 4.99619e-05
*RES
1 *46:Y *47:B1 4.01 
*END

*D_NET *20 0.000597138
*CONN
*I *50:B I *D sky130_fd_sc_hd__nand2_1
*I *49:B I *D sky130_fd_sc_hd__or2_1
*I *48:X O *D sky130_fd_sc_hd__xor2_1
*CAP
1 *50:B 0.000108101
2 *49:B 0
3 *48:X 4.42299e-05
4 *20:8 0.000152331
5 *50:B *48:B 3.94338e-05
6 *50:B *50:A 4.89503e-05
7 *50:B *51:B 4.82863e-05
8 *50:B *60:B1 6.46111e-05
9 *50:B *21:14 4.82919e-05
10 *20:8 *48:B 2.51139e-05
11 *20:8 *50:A 1.37328e-05
12 *20:8 *60:A3 0
13 *20:8 *60:B1 4.05674e-06
14 *20:8 *38:58 0
*RES
1 *48:X *20:8 2.665 
2 *20:8 *49:B 1.6 
3 *20:8 *50:B 4.48 
*END

*D_NET *21 0.00129826
*CONN
*I *57:A I *D sky130_fd_sc_hd__xnor2_1
*I *51:A I *D sky130_fd_sc_hd__nand2_1
*I *49:X O *D sky130_fd_sc_hd__or2_1
*CAP
1 *57:A 0.000116963
2 *51:A 0
3 *49:X 6.20992e-05
4 *21:14 0.000179062
5 *57:A *54:B1 8.01019e-05
6 *57:A *56:B 1.61831e-05
7 *57:A *60:A3 0.000168494
8 *57:A *60:B1 5.61286e-05
9 *57:A *39:47 0.000188069
10 *21:14 *50:A 4.99619e-05
11 *21:14 *51:B 0.000120881
12 *21:14 *60:B1 2.49909e-05
13 *21:14 *37:44 0.000164686
14 *21:14 *38:58 2.23485e-05
15 *50:B *21:14 4.82919e-05
*RES
1 *49:X *21:14 8.39 
2 *21:14 *51:A 1.6 
3 *21:14 *57:A 5.53 
*END

*D_NET *22 0.000390221
*CONN
*I *51:B I *D sky130_fd_sc_hd__nand2_1
*I *50:Y O *D sky130_fd_sc_hd__nand2_1
*CAP
1 *51:B 4.22615e-05
2 *50:Y 4.22615e-05
3 *51:B *60:B1 1.56428e-05
4 *51:B *38:58 0.000120888
5 *50:B *51:B 4.82863e-05
6 *21:14 *51:B 0.000120881
*RES
1 *50:Y *51:B 9.03 
*END

*D_NET *23 0.000852944
*CONN
*I *53:A3 I *D sky130_fd_sc_hd__a31o_1
*I *51:Y O *D sky130_fd_sc_hd__nand2_1
*CAP
1 *53:A3 0.000166925
2 *51:Y 0.000166925
3 *53:A3 *44:B 0
4 *53:A3 *60:A3 0.000131761
5 *53:A3 *30:12 0.000305526
6 *53:A3 *34:27 1.94723e-05
7 *53:A3 *37:21 0
8 *53:A3 *37:38 0
9 *53:A3 *39:8 4.9253e-06
10 *66:D *53:A3 5.74095e-05
*RES
1 *51:Y *53:A3 12.105 
*END

*D_NET *24 0.000291549
*CONN
*I *53:B1 I *D sky130_fd_sc_hd__a31o_1
*I *52:X O *D sky130_fd_sc_hd__a21o_1
*CAP
1 *53:B1 2.25496e-05
2 *52:X 2.25496e-05
3 *53:B1 *53:A1 0.000123225
4 *53:A2 *53:B1 0.000123225
*RES
1 *52:X *53:B1 4.34 
*END

*D_NET *25 0.000298002
*CONN
*I *56:A I *D sky130_fd_sc_hd__nand2_1
*I *54:X O *D sky130_fd_sc_hd__a21o_1
*CAP
1 *56:A 0.000146235
2 *54:X 0.000146235
3 *56:A *54:A1 5.53249e-06
4 *56:A *54:B1 0
5 *56:A *56:B 0
6 *56:A *57:B 0
*RES
1 *54:X *56:A 9.72 
*END

*D_NET *26 0.00096623
*CONN
*I *56:B I *D sky130_fd_sc_hd__nand2_1
*I *60:B1 I *D sky130_fd_sc_hd__o31ai_1
*I *55:Y O *D sky130_fd_sc_hd__nand3_1
*CAP
1 *56:B 0.000118653
2 *60:B1 0.000143852
3 *55:Y 0
4 *26:4 0.000262505
5 *56:B *48:B 0
6 *56:B *54:B1 0.000124895
7 *56:B *57:B 7.70758e-05
8 *60:B1 *60:A3 5.76361e-05
9 *50:B *60:B1 6.46111e-05
10 *51:B *60:B1 1.56428e-05
11 *56:A *56:B 0
12 *57:A *56:B 1.61831e-05
13 *57:A *60:B1 5.61286e-05
14 *20:8 *60:B1 4.05674e-06
15 *21:14 *60:B1 2.49909e-05
*RES
1 *55:Y *26:4 1.6 
2 *26:4 *60:B1 5.185 
3 *26:4 *56:B 8.465 
*END

*D_NET *27 0.000242072
*CONN
*I *57:B I *D sky130_fd_sc_hd__xnor2_1
*I *56:Y O *D sky130_fd_sc_hd__nand2_1
*CAP
1 *57:B 8.24981e-05
2 *56:Y 8.24981e-05
3 *57:B *48:B 0
4 *57:B *54:A1 0
5 *57:B *40:35 0
6 *56:A *57:B 0
7 *56:B *57:B 7.70758e-05
*RES
1 *56:Y *57:B 8.835 
*END

*D_NET *28 0.000791295
*CONN
*I *59:A2 I *D sky130_fd_sc_hd__o21ai_1
*I *57:Y O *D sky130_fd_sc_hd__xnor2_1
*CAP
1 *59:A2 0.000125511
2 *57:Y 0.000125511
3 *59:A2 *59:B1 5.30673e-05
4 *59:A2 *74:A 7.89983e-05
5 *59:A2 *38:50 5.43769e-05
6 *59:A2 *39:47 0.000353831
7 *59:A2 *40:8 0
*RES
1 *57:Y *59:A2 8.42 
*END

*D_NET *29 0.00062296
*CONN
*I *59:B1 I *D sky130_fd_sc_hd__o21ai_1
*I *58:Y O *D sky130_fd_sc_hd__a21oi_1
*CAP
1 *59:B1 0.000139851
2 *58:Y 0.000139851
3 *59:B1 *67:CLK 0
4 *59:B1 *38:31 1.34361e-05
5 *59:B1 *40:8 0
6 *46:B1 *59:B1 9.50342e-06
7 *59:A1 *59:B1 0.000212505
8 *59:A2 *59:B1 5.30673e-05
9 *67:D *59:B1 5.47453e-05
*RES
1 *58:Y *59:B1 10.65 
*END

*D_NET *30 0.00220285
*CONN
*I *63:C I *D sky130_fd_sc_hd__nand4_1
*I *62:A2 I *D sky130_fd_sc_hd__a31o_1
*I *60:Y O *D sky130_fd_sc_hd__o31ai_1
*CAP
1 *63:C 5.36726e-05
2 *62:A2 0.000145662
3 *60:Y 0.000279886
4 *30:12 0.000479221
5 *62:A2 *62:A3 0.000102594
6 *62:A2 *62:B1 5.58436e-05
7 *62:A2 *34:27 4.65698e-05
8 *62:A2 *34:31 4.60596e-05
9 *62:A2 *35:23 2.24673e-05
10 *63:C *63:D 8.1633e-05
11 *63:C *64:A3 4.03082e-05
12 *63:C *35:12 0
13 *30:12 *60:A1 0
14 *30:12 *63:D 1.8279e-05
15 *30:12 *64:A3 0.000134588
16 *30:12 *31:10 0.000117033
17 *30:12 *34:27 0
18 *30:12 *37:44 9.50613e-05
19 *44:A *30:12 0
20 *53:A3 *30:12 0.000305526
21 *64:B1 *30:12 0.000178444
*RES
1 *60:Y *30:12 12.675 
2 *30:12 *62:A2 7.53 
3 *30:12 *63:C 5.235 
*END

*D_NET *31 0.00197109
*CONN
*I *62:A3 I *D sky130_fd_sc_hd__a31o_1
*I *63:D I *D sky130_fd_sc_hd__nand4_1
*I *61:Y O *D sky130_fd_sc_hd__nand2b_1
*CAP
1 *62:A3 9.99526e-05
2 *63:D 7.04958e-05
3 *61:Y 0.00020477
4 *31:10 0.000375218
5 *62:A3 *34:31 3.31103e-05
6 *62:A3 *35:23 1.93765e-05
7 *62:A3 *35:27 0
8 *63:D *62:B1 2.75145e-05
9 *63:D *35:23 0.000104254
10 *31:10 *53:A1 9.05377e-05
11 *31:10 *61:B 0.000271308
12 *31:10 *64:A2 4.58406e-05
13 *31:10 *34:27 2.65814e-06
14 *31:10 *35:23 3.71775e-05
15 *31:10 *35:27 5.38986e-06
16 *31:10 *37:38 0
17 *53:A2 *31:10 0.000122337
18 *62:A2 *62:A3 0.000102594
19 *63:C *63:D 8.1633e-05
20 *64:B1 *31:10 0.000141606
21 *66:D *31:10 0
22 *30:12 *63:D 1.8279e-05
23 *30:12 *31:10 0.000117033
*RES
1 *61:Y *31:10 10.1775 
2 *31:10 *63:D 6.0675 
3 *31:10 *62:A3 5.7825 
*END

*D_NET *32 0.000575574
*CONN
*I *64:A2 I *D sky130_fd_sc_hd__a31o_1
*I *62:X O *D sky130_fd_sc_hd__a31o_1
*CAP
1 *64:A2 0.000137205
2 *62:X 0.000137205
3 *64:A2 *34:27 0
4 *64:A2 *34:31 5.35969e-06
5 *64:A2 *35:23 7.87426e-05
6 *64:A2 *36:8 1.34594e-05
7 *64:A1 *64:A2 0.000142842
8 *68:D *64:A2 5.66845e-06
9 *15:10 *64:A2 9.25211e-06
10 *31:10 *64:A2 4.58406e-05
*RES
1 *62:X *64:A2 10.62 
*END

*D_NET *33 0.000463738
*CONN
*I *64:A3 I *D sky130_fd_sc_hd__a31o_1
*I *63:Y O *D sky130_fd_sc_hd__nand4_1
*CAP
1 *64:A3 0.000101513
2 *63:Y 0.000101513
3 *64:A3 *34:27 2.84137e-05
4 *64:A3 *35:12 0
5 *63:C *64:A3 4.03082e-05
6 *68:D *64:A3 5.74016e-05
7 *30:12 *64:A3 0.000134588
*RES
1 *63:Y *64:A3 10.62 
*END

*D_NET *34 0.00370922
*CONN
*I *68:CLK I *D sky130_fd_sc_hd__dfxtp_1
*I *65:CLK I *D sky130_fd_sc_hd__dfxtp_1
*I *67:CLK I *D sky130_fd_sc_hd__dfxtp_1
*I *66:CLK I *D sky130_fd_sc_hd__dfxtp_1
*I *69:X O *D sky130_fd_sc_hd__buf_1
*CAP
1 *68:CLK 0
2 *65:CLK 2.08101e-05
3 *67:CLK 0.000419445
4 *66:CLK 8.40646e-05
5 *69:X 0
6 *34:31 0.000766557
7 *34:27 0.000818215
8 *34:4 0.000575978
9 *66:CLK *61:A_N 0
10 *66:CLK *36:8 0
11 *66:CLK *37:21 0
12 *67:CLK *38:21 2.65814e-06
13 *67:CLK *38:25 5.43769e-05
14 *67:CLK *40:8 5.24723e-05
15 *34:27 *61:A_N 0
16 *34:27 *61:B 2.24389e-05
17 *34:27 *35:12 0
18 *34:27 *35:23 0
19 *34:27 *36:8 0
20 *34:31 *62:B1 3.07153e-05
21 *34:31 *38:25 1.0124e-05
22 *34:31 *38:31 0
23 *46:A2 *67:CLK 0
24 *46:B1 *67:CLK 1.16578e-05
25 *53:A3 *34:27 1.94723e-05
26 *59:B1 *67:CLK 0
27 *62:A2 *34:27 4.65698e-05
28 *62:A2 *34:31 4.60596e-05
29 *62:A3 *34:31 3.31103e-05
30 *64:A2 *34:27 0
31 *64:A2 *34:31 5.35969e-06
32 *64:A3 *34:27 2.84137e-05
33 *65:D *67:CLK 0.000106289
34 *66:D *34:27 7.13674e-05
35 *67:D *67:CLK 7.66593e-05
36 *68:D *34:27 0.000264283
37 *69:A *66:CLK 0.000111059
38 *70:A *34:27 0
39 *71:A *34:27 0
40 *15:6 *34:31 1.16646e-05
41 *15:10 *34:31 1.67424e-05
42 *16:6 *34:31 0
43 *17:34 *67:CLK 0
44 *30:12 *34:27 0
45 *31:10 *34:27 2.65814e-06
*RES
1 *69:X *34:4 1.6 
2 *34:4 *66:CLK 7.43 
3 *34:4 *34:27 14.08 
4 *34:27 *34:31 6.33 
5 *34:31 *67:CLK 13.22 
6 *34:31 *65:CLK 1.96 
7 *34:27 *68:CLK 1.6 
*END

*D_NET *35 0.00305539
*CONN
*I *62:A1 I *D sky130_fd_sc_hd__a31o_1
*I *43:A I *D sky130_fd_sc_hd__nand2_1
*I *45:A I *D sky130_fd_sc_hd__nor2_1
*I *53:A1 I *D sky130_fd_sc_hd__a31o_1
*I *63:A I *D sky130_fd_sc_hd__nand4_1
*I *70:X O *D sky130_fd_sc_hd__buf_1
*CAP
1 *62:A1 9.63753e-05
2 *43:A 7.17594e-06
3 *45:A 0
4 *53:A1 0.000183284
5 *63:A 0
6 *70:X 0.000278076
7 *35:51 0.000172694
8 *35:27 0.000214704
9 *35:23 0.00035935
10 *35:12 0.000536864
11 *43:A *38:31 0
12 *53:A1 *61:B 0
13 *53:A1 *37:38 0
14 *35:12 *41:19 0.000239813
15 *35:23 *62:B1 6.76279e-05
16 *35:23 *41:19 8.8266e-05
17 *44:A *53:A1 7.23533e-05
18 *52:B1 *53:A1 5.4155e-06
19 *53:A2 *53:A1 2.16833e-05
20 *53:B1 *53:A1 0.000123225
21 *62:A2 *35:23 2.24673e-05
22 *62:A3 *35:23 1.93765e-05
23 *62:A3 *35:27 0
24 *63:C *35:12 0
25 *63:D *35:23 0.000104254
26 *64:A2 *35:23 7.87426e-05
27 *64:A3 *35:12 0
28 *64:B1 *53:A1 7.1994e-05
29 *71:A *35:12 0
30 *15:25 *53:A1 0.000154488
31 *17:21 *53:A1 4.05674e-06
32 *31:10 *53:A1 9.05377e-05
33 *31:10 *35:23 3.71775e-05
34 *31:10 *35:27 5.38986e-06
35 *34:27 *35:12 0
36 *34:27 *35:23 0
*RES
1 *70:X *35:12 11.195 
2 *35:12 *63:A 1.6 
3 *35:12 *35:23 8.6675 
4 *35:23 *35:27 0.6825 
5 *35:27 *53:A1 8.715 
6 *35:27 *45:A 3.6 
7 *35:23 *35:51 0.795 
8 *35:51 *43:A 3.8325 
9 *35:51 *62:A1 5.8125 
*END

*D_NET *36 0.00134112
*CONN
*I *42:A I *D sky130_fd_sc_hd__inv_2
*I *45:B I *D sky130_fd_sc_hd__nor2_1
*I *71:X O *D sky130_fd_sc_hd__buf_1
*CAP
1 *42:A 3.51827e-05
2 *45:B 1.13991e-05
3 *71:X 0.000309943
4 *36:8 0.000356525
5 *36:8 *61:B 0.000145748
6 *43:B *42:A 9.53428e-06
7 *43:B *45:B 3.60724e-06
8 *64:A1 *36:8 0.000145378
9 *64:A2 *36:8 1.34594e-05
10 *66:CLK *36:8 0
11 *68:D *36:8 0
12 *70:A *36:8 3.00381e-05
13 *15:6 *42:A 2.30292e-05
14 *15:10 *42:A 7.60965e-05
15 *15:10 *45:B 2.28653e-05
16 *15:10 *36:8 1.93437e-05
17 *16:6 *42:A 8.8266e-05
18 *18:6 *42:A 3.90495e-05
19 *18:6 *36:8 1.16578e-05
20 *34:27 *36:8 0
*RES
1 *71:X *36:8 8.275 
2 *36:8 *45:B 1.96 
3 *36:8 *42:A 3.445 
*END

*D_NET *37 0.00255375
*CONN
*I *44:B I *D sky130_fd_sc_hd__nor2_1
*I *49:A I *D sky130_fd_sc_hd__or2_1
*I *50:A I *D sky130_fd_sc_hd__nand2_1
*I *61:A_N I *D sky130_fd_sc_hd__nand2b_1
*I *60:A1 I *D sky130_fd_sc_hd__o31ai_1
*I *72:X O *D sky130_fd_sc_hd__buf_1
*CAP
1 *44:B 2.31675e-05
2 *49:A 0
3 *50:A 3.88474e-05
4 *61:A_N 9.8016e-05
5 *60:A1 0.000128482
6 *72:X 6.77815e-05
7 *37:44 0.000236277
8 *37:38 0.00043685
9 *37:21 0.00041032
10 *37:8 0.000292314
11 *44:B *39:8 2.11084e-05
12 *50:A *48:B 0.000124895
13 *60:A1 *48:B 0
14 *60:A1 *60:A2 6.05682e-05
15 *60:A1 *38:58 0
16 *37:38 *60:A2 0
17 *37:44 *52:A1 0
18 *37:44 *60:A2 0
19 *37:44 *38:50 6.14433e-05
20 *50:B *50:A 4.89503e-05
21 *53:A1 *37:38 0
22 *53:A2 *37:38 0
23 *53:A3 *44:B 0
24 *53:A3 *37:21 0
25 *53:A3 *37:38 0
26 *64:B1 *44:B 5.05521e-05
27 *64:B1 *37:38 5.83121e-06
28 *66:CLK *61:A_N 0
29 *66:CLK *37:21 0
30 *66:D *60:A1 0
31 *66:D *61:A_N 0
32 *66:D *37:8 0
33 *66:D *37:38 0.0001249
34 *69:A *61:A_N 0
35 *20:8 *50:A 1.37328e-05
36 *21:14 *50:A 4.99619e-05
37 *21:14 *37:44 0.000164686
38 *30:12 *60:A1 0
39 *30:12 *37:44 9.50613e-05
40 *31:10 *37:38 0
41 *34:27 *61:A_N 0
*RES
1 *72:X *37:8 4.74 
2 *37:8 *60:A1 5.955 
3 *37:8 *37:21 1.7625 
4 *37:21 *61:A_N 5.3625 
5 *37:21 *37:38 5.8925 
6 *37:38 *37:44 8.185 
7 *37:44 *50:A 3.46 
8 *37:44 *49:A 1.6 
9 *37:38 *44:B 2.395 
*END

*D_NET *38 0.00497323
*CONN
*I *46:A1 I *D sky130_fd_sc_hd__a21oi_1
*I *47:A1 I *D sky130_fd_sc_hd__o21ai_1
*I *55:A I *D sky130_fd_sc_hd__nand3_1
*I *48:A I *D sky130_fd_sc_hd__xor2_1
*I *60:A2 I *D sky130_fd_sc_hd__o31ai_1
*I *54:A1 I *D sky130_fd_sc_hd__a21o_1
*I *73:A I *D sky130_fd_sc_hd__buf_2
*I *65:Q O *D sky130_fd_sc_hd__dfxtp_1
*CAP
1 *46:A1 0
2 *47:A1 0
3 *55:A 0
4 *48:A 0
5 *60:A2 0.000173669
6 *54:A1 0.00019744
7 *73:A 0
8 *65:Q 0.00010755
9 *38:58 0.000449762
10 *38:50 0.00053455
11 *38:31 0.000666862
12 *38:25 0.000298864
13 *38:21 0.000305509
14 *38:12 0.000325161
15 *54:A1 *54:B1 1.08758e-05
16 *54:A1 *39:47 2.50702e-05
17 *54:A1 *40:35 0
18 *60:A2 *48:B 0
19 *38:31 *40:18 4.49498e-05
20 *38:31 *40:35 0
21 *38:50 *48:B 9.50342e-06
22 *38:50 *52:A1 2.07184e-05
23 *38:50 *39:8 4.66108e-05
24 *38:50 *39:10 8.99646e-05
25 *38:50 *39:12 4.21314e-05
26 *38:50 *39:47 3.6395e-05
27 *38:50 *40:18 0
28 *38:58 *48:B 0.000593538
29 *43:A *38:31 0
30 *46:A2 *38:21 1.17409e-05
31 *46:A2 *38:25 3.13357e-05
32 *46:B1 *38:25 8.65961e-05
33 *46:B1 *38:31 1.73877e-05
34 *47:A2 *38:25 1.47347e-05
35 *47:A2 *38:31 5.83121e-06
36 *51:B *38:58 0.000120888
37 *56:A *54:A1 5.53249e-06
38 *57:B *54:A1 0
39 *59:A1 *38:31 0.000323876
40 *59:A2 *38:50 5.43769e-05
41 *59:B1 *38:31 1.34361e-05
42 *60:A1 *60:A2 6.05682e-05
43 *60:A1 *38:58 0
44 *64:B1 *38:50 2.65814e-06
45 *67:CLK *38:21 2.65814e-06
46 *67:CLK *38:25 5.43769e-05
47 *16:6 *38:31 2.49909e-05
48 *17:21 *38:50 6.92065e-05
49 *17:34 *38:50 0
50 *20:8 *38:58 0
51 *21:14 *38:58 2.23485e-05
52 *34:31 *38:25 1.0124e-05
53 *34:31 *38:31 0
54 *37:38 *60:A2 0
55 *37:44 *60:A2 0
56 *37:44 *38:50 6.14433e-05
*RES
1 *65:Q *38:12 7.43 
2 *38:12 *73:A 1.6 
3 *38:12 *38:21 3.915 
4 *38:21 *38:25 2.535 
5 *38:25 *38:31 7.145 
6 *38:31 *54:A1 6.795 
7 *38:31 *38:50 10.48 
8 *38:50 *38:58 9.08 
9 *38:58 *60:A2 8.7125 
10 *38:58 *48:A 1.6 
11 *38:50 *55:A 3.6 
12 *38:25 *47:A1 1.6 
13 *38:21 *46:A1 1.6 
*END

*D_NET *39 0.00476789
*CONN
*I *52:A1 I *D sky130_fd_sc_hd__a21o_1
*I *74:A I *D sky130_fd_sc_hd__buf_2
*I *54:A2 I *D sky130_fd_sc_hd__a21o_1
*I *60:A3 I *D sky130_fd_sc_hd__o31ai_1
*I *55:B I *D sky130_fd_sc_hd__nand3_1
*I *48:B I *D sky130_fd_sc_hd__xor2_1
*I *66:Q O *D sky130_fd_sc_hd__dfxtp_1
*CAP
1 *52:A1 0.000108719
2 *74:A 0.000323833
3 *54:A2 7.88817e-05
4 *60:A3 8.17735e-05
5 *55:B 0
6 *48:B 0.000222094
7 *66:Q 2.93299e-05
8 *39:47 0.0005686
9 *39:34 0.000247659
10 *39:12 0.00023994
11 *39:10 4.11746e-05
12 *39:8 0.000161377
13 *48:B *40:35 5.53249e-06
14 *52:A1 *40:35 0.000171191
15 *54:A2 *54:B1 0
16 *74:A *40:8 0
17 *39:10 *40:35 5.55344e-05
18 *39:12 *40:35 2.78732e-05
19 *39:47 *54:B1 0.000106368
20 *44:A *52:A1 0.000122548
21 *44:B *39:8 2.11084e-05
22 *50:A *48:B 0.000124895
23 *50:B *48:B 3.94338e-05
24 *52:B1 *52:A1 8.40269e-05
25 *53:A3 *60:A3 0.000131761
26 *53:A3 *39:8 4.9253e-06
27 *54:A1 *39:47 2.50702e-05
28 *56:B *48:B 0
29 *57:A *60:A3 0.000168494
30 *57:A *39:47 0.000188069
31 *57:B *48:B 0
32 *59:A2 *74:A 7.89983e-05
33 *59:A2 *39:47 0.000353831
34 *60:A1 *48:B 0
35 *60:A2 *48:B 0
36 *60:B1 *60:A3 5.76361e-05
37 *64:B1 *39:8 2.8585e-06
38 *17:21 *52:A1 3.03775e-05
39 *20:8 *48:B 2.51139e-05
40 *20:8 *60:A3 0
41 *37:44 *52:A1 0
42 *38:50 *48:B 9.50342e-06
43 *38:50 *52:A1 2.07184e-05
44 *38:50 *39:8 4.66108e-05
45 *38:50 *39:10 8.99646e-05
46 *38:50 *39:12 4.21314e-05
47 *38:50 *39:47 3.6395e-05
48 *38:58 *48:B 0.000593538
*RES
1 *66:Q *39:8 4.74 
2 *39:8 *39:10 1.125 
3 *39:10 *39:12 0.615 
4 *39:12 *48:B 9.915 
5 *39:12 *55:B 3.6 
6 *39:10 *39:34 2 
7 *39:34 *60:A3 4.585 
8 *39:34 *39:47 6.315 
9 *39:47 *54:A2 3.355 
10 *39:47 *74:A 7.495 
11 *39:8 *52:A1 7.095 
*END

*D_NET *40 0.00453235
*CONN
*I *75:A I *D sky130_fd_sc_hd__buf_2
*I *58:A1 I *D sky130_fd_sc_hd__a21oi_1
*I *55:C I *D sky130_fd_sc_hd__nand3_1
*I *54:B1 I *D sky130_fd_sc_hd__a21o_1
*I *61:B I *D sky130_fd_sc_hd__nand2b_1
*I *67:Q O *D sky130_fd_sc_hd__dfxtp_1
*CAP
1 *75:A 0.000232849
2 *58:A1 0
3 *55:C 0
4 *54:B1 0.000170038
5 *61:B 0.000229158
6 *67:Q 2.6541e-05
7 *40:35 0.000385728
8 *40:18 0.000609397
9 *40:8 0.000478444
10 *40:6 0.000573286
11 counter[1] *75:A 3.91226e-05
12 *44:A *40:35 3.84331e-05
13 *46:A2 *40:8 0
14 *46:B1 *40:8 9.80943e-06
15 *48:B *40:35 5.53249e-06
16 *52:A1 *40:35 0.000171191
17 *52:A2 *40:18 8.31082e-05
18 *52:B1 *61:B 1.4389e-05
19 *52:B1 *40:18 2.10134e-05
20 *53:A1 *61:B 0
21 *53:A2 *61:B 6.26945e-05
22 *54:A1 *54:B1 1.08758e-05
23 *54:A1 *40:35 0
24 *54:A2 *54:B1 0
25 *56:A *54:B1 0
26 *56:B *54:B1 0.000124895
27 *57:A *54:B1 8.01019e-05
28 *57:B *40:35 0
29 *59:A2 *40:8 0
30 *59:B1 *40:8 0
31 *67:CLK *40:8 5.24723e-05
32 *67:D *40:8 7.36892e-05
33 *74:A *40:8 0
34 *15:25 *40:35 2.86623e-05
35 *17:34 *40:8 8.23457e-05
36 *17:34 *40:18 0.000123225
37 *18:6 *61:B 1.83756e-05
38 *18:6 *40:18 0.000112751
39 *31:10 *61:B 0.000271308
40 *34:27 *61:B 2.24389e-05
41 *36:8 *61:B 0.000145748
42 *38:31 *40:18 4.49498e-05
43 *38:31 *40:35 0
44 *38:50 *40:18 0
45 *39:10 *40:35 5.55344e-05
46 *39:12 *40:35 2.78732e-05
47 *39:47 *54:B1 0.000106368
*RES
1 *67:Q *40:6 2.05 
2 *40:6 *40:8 5.97 
3 *40:8 *40:18 9.04 
4 *40:18 *61:B 7.6225 
5 *40:18 *40:35 8.95 
6 *40:35 *54:B1 5.875 
7 *40:35 *55:C 1.6 
8 *40:8 *58:A1 1.6 
9 *40:6 *75:A 9.275 
*END

*D_NET *41 0.00203909
*CONN
*I *62:B1 I *D sky130_fd_sc_hd__a31o_1
*I *63:B I *D sky130_fd_sc_hd__nand4_1
*I *76:A I *D sky130_fd_sc_hd__buf_2
*I *68:Q O *D sky130_fd_sc_hd__dfxtp_1
*CAP
1 *62:B1 0.000369907
2 *63:B 0
3 *76:A 0
4 *68:Q 0.000217455
5 *41:19 0.0005472
6 *41:10 0.000394749
7 *62:A2 *62:B1 5.58436e-05
8 *63:D *62:B1 2.75145e-05
9 *70:A *41:10 0
10 *34:31 *62:B1 3.07153e-05
11 *35:12 *41:19 0.000239813
12 *35:23 *62:B1 6.76279e-05
13 *35:23 *41:19 8.8266e-05
*RES
1 *68:Q *41:10 5.86 
2 *41:10 *76:A 1.6 
3 *41:10 *41:19 4.17 
4 *41:19 *63:B 1.6 
5 *41:19 *62:B1 9.4 
*END
