*SPEF "ieee 1481-1999"
*DESIGN "counter_dut"
*DATE "10:04:13 Wednesday December 04, 2024"
*VENDOR "The OpenROAD Project"
*PROGRAM "OpenROAD"
*VERSION "edf00dff99f6c40d67a30c0e22a8191c5d2ed9d6"
*DESIGN_FLOW "NAME_SCOPE LOCAL" "PIN_CAP NONE"
*DIVIDER /
*DELIMITER :
*BUS_DELIMITER []
*T_UNIT 1 NS
*C_UNIT 1 PF
*R_UNIT 1 OHM
*L_UNIT 1 HENRY

*NAME_MAP
*1 clock
*2 counter[0]
*3 counter[1]
*4 counter[2]
*5 counter[3]
*6 enable
*7 reset
*8 up_down
*11 _00_
*12 _01_
*13 _02_
*14 _03_
*15 _04_
*16 _05_
*17 _06_
*18 _07_
*19 _08_
*20 _09_
*21 _10_
*22 _11_
*23 _12_
*24 _13_
*25 _14_
*26 _15_
*27 _16_
*28 _17_
*29 _18_
*30 _19_
*31 _20_
*32 _21_
*33 _22_
*34 net1
*35 net2
*36 net3
*37 net4
*38 net5
*39 net6
*40 net7
*41 net8
*42 _23_
*43 _24_
*44 _25_
*45 _26_
*46 _27_
*47 _28_
*48 _29_
*49 _30_
*50 _31_
*51 _32_
*52 _33_
*53 _34_
*54 _35_
*55 _36_
*56 _37_
*57 _38_
*58 _39_
*59 _40_
*60 _41_
*61 _42_
*62 _43_
*63 _44_
*64 _45_
*65 _46_
*66 _47_
*67 _48_
*68 _49_
*69 input1
*70 input2
*71 input3
*72 input4
*73 output5
*74 output6
*75 output7
*76 output8

*PORTS
clock I
counter[0] O
counter[1] O
counter[2] O
counter[3] O
enable I
reset I
up_down I

*D_NET *1 0.000581666
*CONN
*P clock I
*I *69:A I *D sky130_fd_sc_hd__buf_1
*CAP
1 clock 0.000171862
2 *69:A 0.000171862
3 *69:A *61:A_N 0
4 *69:A *70:A 5.08354e-05
5 *69:A *72:A 5.32136e-05
6 *69:A *34:12 0.000133892
*RES
1 clock *69:A 48.9342 
*END

*D_NET *2 0.000435935
*CONN
*P counter[0] O
*I *73:X O *D sky130_fd_sc_hd__buf_2
*CAP
1 counter[0] 0.00018798
2 *73:X 0.00018798
3 counter[0] counter[1] 5.99754e-05
*RES
1 *73:X counter[0] 47.6115 
*END

*D_NET *3 0.000445972
*CONN
*P counter[1] O
*I *74:X O *D sky130_fd_sc_hd__buf_2
*CAP
1 counter[1] 0.000141527
2 *74:X 0.000141527
3 counter[1] counter[2] 5.99754e-05
4 counter[1] *40:62 4.29668e-05
5 counter[0] counter[1] 5.99754e-05
*RES
1 *74:X counter[1] 47.6115 
*END

*D_NET *4 0.000405118
*CONN
*P counter[2] O
*I *75:X O *D sky130_fd_sc_hd__buf_2
*CAP
1 counter[2] 0.000172571
2 *75:X 0.000172571
3 counter[1] counter[2] 5.99754e-05
*RES
1 *75:X counter[2] 47.2593 
*END

*D_NET *5 0.000415834
*CONN
*P counter[3] O
*I *76:X O *D sky130_fd_sc_hd__buf_2
*CAP
1 counter[3] 0.000182499
2 *76:X 0.000182499
3 counter[3] *70:A 0
4 counter[3] *71:A 5.08354e-05
*RES
1 *76:X counter[3] 46.9072 
*END

*D_NET *6 0.00069578
*CONN
*P enable I
*I *70:A I *D sky130_fd_sc_hd__buf_1
*CAP
1 enable 0.000273999
2 *70:A 0.000273999
3 *70:A *71:A 6.46589e-05
4 *70:A *34:27 0
5 *70:A *36:8 3.22879e-05
6 *70:A *41:10 0
7 counter[3] *70:A 0
8 *69:A *70:A 5.08354e-05
*RES
1 enable *70:A 49.7658 
*END

*D_NET *7 0.000464454
*CONN
*P reset I
*I *71:A I *D sky130_fd_sc_hd__buf_1
*CAP
1 reset 0.00017448
2 *71:A 0.00017448
3 *71:A *34:27 0
4 *71:A *35:8 0
5 counter[3] *71:A 5.08354e-05
6 *70:A *71:A 6.46589e-05
*RES
1 reset *71:A 48.2299 
*END

*D_NET *8 0.00030203
*CONN
*P up_down I
*I *72:A I *D sky130_fd_sc_hd__buf_1
*CAP
1 up_down 0.000124408
2 *72:A 0.000124408
3 *69:A *72:A 5.32136e-05
*RES
1 up_down *72:A 46.8213 
*END

*D_NET *11 0.00034161
*CONN
*I *65:D I *D sky130_fd_sc_hd__dfxtp_1
*I *47:Y O *D sky130_fd_sc_hd__o21ai_1
*CAP
1 *65:D 3.62124e-05
2 *47:Y 7.64513e-05
3 *11:8 0.000112664
4 *65:D *34:45 8.38361e-05
5 *11:8 *34:45 3.24466e-05
*RES
1 *47:Y *11:8 39.5536 
2 *11:8 *65:D 38.9373 
*END

*D_NET *12 0.000625742
*CONN
*I *66:D I *D sky130_fd_sc_hd__dfxtp_1
*I *53:X O *D sky130_fd_sc_hd__a31o_1
*CAP
1 *66:D 0.00012001
2 *53:X 5.47975e-05
3 *12:8 0.000174808
4 *66:D *60:A1 0
5 *66:D *31:10 0
6 *66:D *34:27 6.13871e-05
7 *66:D *37:8 0
8 *66:D *37:38 0.00014196
9 *12:8 *61:A_N 0
10 *12:8 *23:10 6.26356e-05
11 *12:8 *34:27 1.01436e-05
*RES
1 *53:X *12:8 39.5536 
2 *12:8 *66:D 41.0502 
*END

*D_NET *13 0.000393637
*CONN
*I *67:D I *D sky130_fd_sc_hd__dfxtp_1
*I *59:Y O *D sky130_fd_sc_hd__o21ai_1
*CAP
1 *67:D 1.84095e-05
2 *59:Y 6.36313e-05
3 *13:8 8.20408e-05
4 *67:D *34:45 8.38361e-05
5 *67:D *40:8 8.38361e-05
6 *13:8 *29:8 5.91176e-05
7 *13:8 *34:45 2.76611e-06
*RES
1 *59:Y *13:8 39.5536 
2 *13:8 *67:D 38.9373 
*END

*D_NET *14 0.000588654
*CONN
*I *68:D I *D sky130_fd_sc_hd__dfxtp_1
*I *64:X O *D sky130_fd_sc_hd__a31o_1
*CAP
1 *68:D 8.17823e-05
2 *64:X 2.45775e-05
3 *14:8 0.00010636
4 *68:D *64:A2 5.55387e-06
5 *68:D *34:27 0.000185129
6 *68:D *36:8 0
7 *14:8 *33:8 6.26252e-05
8 *14:8 *34:27 0.000122627
*RES
1 *64:X *14:8 39.5536 
2 *14:8 *68:D 40.0973 
*END

*D_NET *15 0.0025129
*CONN
*I *43:B I *D sky130_fd_sc_hd__nand2_1
*I *53:A2 I *D sky130_fd_sc_hd__a31o_1
*I *44:A I *D sky130_fd_sc_hd__nor2_1
*I *64:A1 I *D sky130_fd_sc_hd__a31o_1
*I *42:Y O *D sky130_fd_sc_hd__inv_2
*CAP
1 *43:B 1.66405e-05
2 *53:A2 0.00010038
3 *44:A 9.26365e-05
4 *64:A1 0.000105385
5 *42:Y 2.90668e-05
6 *15:25 0.00030051
7 *15:10 0.000312405
8 *15:6 0.000145234
9 *43:B *42:A 1.14154e-05
10 *43:B *45:B 3.54864e-06
11 *44:A *52:A1 0.000147271
12 *44:A *53:A1 8.62783e-05
13 *44:A *17:12 0
14 *44:A *30:10 0
15 *44:A *40:35 4.17929e-05
16 *53:A2 *53:A1 2.32004e-05
17 *53:A2 *53:B1 0.000140259
18 *53:A2 *61:B 6.68822e-05
19 *53:A2 *17:21 0
20 *53:A2 *31:10 0.000139357
21 *53:A2 *37:38 0
22 *64:A1 *64:A2 0.000161198
23 *64:A1 *36:8 0.00016121
24 *15:6 *42:A 2.4754e-05
25 *15:6 *16:6 1.76557e-05
26 *15:6 *34:31 1.18615e-05
27 *15:10 *42:A 8.1796e-05
28 *15:10 *45:B 2.73062e-05
29 *15:10 *64:A2 1.10088e-05
30 *15:10 *34:31 1.62826e-05
31 *15:10 *36:8 2.18109e-05
32 *15:25 *53:A1 0.000185104
33 *15:25 *40:35 3.0647e-05
*RES
1 *42:Y *15:6 24.0979 
2 *15:6 *15:10 2.9 
3 *15:10 *64:A1 26.1693 
4 *15:10 *15:25 17.61 
5 *15:25 *44:A 40.9621 
6 *15:25 *53:A2 41.0036 
7 *15:6 *43:B 23.4971 
*END

*D_NET *16 0.00186661
*CONN
*I *47:A2 I *D sky130_fd_sc_hd__o21ai_1
*I *59:A1 I *D sky130_fd_sc_hd__o21ai_1
*I *43:Y O *D sky130_fd_sc_hd__nand2_1
*CAP
1 *47:A2 1.65007e-05
2 *59:A1 0
3 *43:Y 0.000131359
4 *16:12 9.66056e-05
5 *16:6 0.000244465
6 *47:A2 *46:A2 4.2573e-05
7 *47:A2 *38:25 1.5769e-05
8 *47:A2 *38:31 6.17437e-06
9 *16:6 *42:A 0.00010018
10 *16:6 *46:A2 0.000139346
11 *16:6 *18:6 0.000317553
12 *16:6 *34:31 0
13 *16:6 *38:31 2.64616e-05
14 *16:12 *17:53 6.77978e-05
15 *16:12 *29:8 0.000255292
16 *16:12 *38:31 0.000388877
17 *15:6 *16:6 1.76557e-05
*RES
1 *43:Y *16:6 27.9093 
2 *16:6 *16:12 35.075 
3 *16:12 *59:A1 23 
4 *16:6 *47:A2 23.6214 
*END

*D_NET *17 0.00329614
*CONN
*I *46:B1 I *D sky130_fd_sc_hd__a21oi_1
*I *58:B1 I *D sky130_fd_sc_hd__a21oi_1
*I *52:B1 I *D sky130_fd_sc_hd__a21o_1
*I *64:B1 I *D sky130_fd_sc_hd__a31o_1
*I *44:Y O *D sky130_fd_sc_hd__nor2_1
*CAP
1 *46:B1 0
2 *58:B1 0
3 *52:B1 6.72697e-05
4 *64:B1 0
5 *44:Y 0
6 *17:53 0.000196131
7 *17:34 0.000370969
8 *17:21 0.000435718
9 *17:12 0.000217364
10 *17:4 0.000410974
11 *52:B1 *52:A1 9.5877e-05
12 *52:B1 *52:A2 5.67058e-05
13 *52:B1 *53:A1 5.90675e-06
14 *52:B1 *61:B 1.39317e-05
15 *52:B1 *40:18 2.07355e-05
16 *17:12 *44:B 5.41385e-05
17 *17:12 *53:A1 6.98871e-05
18 *17:12 *30:10 0.000171155
19 *17:12 *30:12 2.47015e-05
20 *17:12 *31:10 0.000169683
21 *17:12 *37:38 6.17437e-06
22 *17:12 *38:50 2.45549e-06
23 *17:12 *39:8 2.80924e-06
24 *17:21 *52:A1 3.16784e-05
25 *17:21 *53:A1 4.04598e-06
26 *17:21 *38:50 6.75168e-05
27 *17:34 *46:A2 0
28 *17:34 *52:A2 0.000228001
29 *17:34 *58:A2 4.34745e-05
30 *17:34 *18:8 0
31 *17:34 *34:45 0
32 *17:34 *38:50 0
33 *17:34 *40:8 9.41704e-05
34 *17:34 *40:18 0.000140259
35 *17:53 *46:A2 1.93799e-05
36 *17:53 *47:B1 5.67058e-05
37 *17:53 *18:8 0
38 *17:53 *29:8 1.14452e-05
39 *17:53 *34:45 1.32314e-05
40 *17:53 *38:25 9.84851e-05
41 *17:53 *38:31 1.69668e-05
42 *17:53 *40:8 1.03955e-05
43 *44:A *17:12 0
44 *53:A2 *17:21 0
45 *16:12 *17:53 6.77978e-05
*RES
1 *44:Y *17:4 23 
2 *17:4 *17:12 36.2971 
3 *17:12 *64:B1 23 
4 *17:4 *17:21 4.55714 
5 *17:21 *52:B1 25.5479 
6 *17:21 *17:34 4.93 
7 *17:34 *58:B1 23 
8 *17:34 *17:53 35.3236 
9 *17:53 *46:B1 23 
*END

*D_NET *18 0.00227646
*CONN
*I *46:A2 I *D sky130_fd_sc_hd__a21oi_1
*I *58:A2 I *D sky130_fd_sc_hd__a21oi_1
*I *52:A2 I *D sky130_fd_sc_hd__a21o_1
*I *45:Y O *D sky130_fd_sc_hd__nor2_1
*CAP
1 *46:A2 0.0002498
2 *58:A2 1.72623e-05
3 *52:A2 6.51911e-05
4 *45:Y 8.84479e-05
5 *18:8 0.000189102
6 *18:6 0.000444897
7 *46:A2 *47:B1 4.6011e-05
8 *46:A2 *34:45 0
9 *46:A2 *38:21 1.14876e-05
10 *46:A2 *38:25 3.06099e-05
11 *46:A2 *40:8 0
12 *52:A2 *40:18 9.00922e-05
13 *18:6 *42:A 4.19743e-05
14 *18:6 *61:B 1.94693e-05
15 *18:6 *36:8 1.32314e-05
16 *18:6 *40:18 0.000121856
17 *47:A2 *46:A2 4.2573e-05
18 *52:B1 *52:A2 5.67058e-05
19 *16:6 *46:A2 0.000139346
20 *16:6 *18:6 0.000317553
21 *17:34 *46:A2 0
22 *17:34 *52:A2 0.000228001
23 *17:34 *58:A2 4.34745e-05
24 *17:34 *18:8 0
25 *17:53 *46:A2 1.93799e-05
26 *17:53 *18:8 0
*RES
1 *45:Y *18:6 27.4329 
2 *18:6 *18:8 2.25786 
3 *18:8 *52:A2 26.0036 
4 *18:8 *58:A2 23.6214 
5 *18:6 *46:A2 29.1107 
*END

*D_NET *19 0.000154403
*CONN
*I *47:B1 I *D sky130_fd_sc_hd__o21ai_1
*I *46:Y O *D sky130_fd_sc_hd__a21oi_1
*CAP
1 *47:B1 2.58432e-05
2 *46:Y 2.58432e-05
3 *46:A2 *47:B1 4.6011e-05
4 *17:53 *47:B1 5.67058e-05
*RES
1 *46:Y *47:B1 47.1186 
*END

*D_NET *20 0.000716294
*CONN
*I *50:B I *D sky130_fd_sc_hd__nand2_1
*I *49:B I *D sky130_fd_sc_hd__or2_1
*I *48:X O *D sky130_fd_sc_hd__xor2_1
*CAP
1 *50:B 0.000150863
2 *49:B 0
3 *48:X 5.14119e-05
4 *20:8 0.000202275
5 *50:B *48:B 4.21352e-05
6 *50:B *50:A 5.25017e-05
7 *50:B *60:B1 6.22909e-05
8 *50:B *21:10 5.50106e-05
9 *50:B *22:10 5.50049e-05
10 *20:8 *48:B 2.70318e-05
11 *20:8 *50:A 1.37232e-05
12 *20:8 *60:A3 0
13 *20:8 *60:B1 4.04598e-06
14 *20:8 *38:58 0
*RES
1 *48:X *20:8 24.4707 
2 *20:8 *49:B 23 
3 *20:8 *50:B 26.9771 
*END

*D_NET *21 0.00158323
*CONN
*I *57:A I *D sky130_fd_sc_hd__xnor2_1
*I *51:A I *D sky130_fd_sc_hd__nand2_1
*I *49:X O *D sky130_fd_sc_hd__or2_1
*CAP
1 *57:A 0.000161377
2 *51:A 0
3 *49:X 7.21519e-05
4 *21:14 0.000183281
5 *21:10 9.40562e-05
6 *57:A *54:B1 8.57986e-05
7 *57:A *60:A3 0.00019254
8 *57:A *60:B1 5.82674e-05
9 *57:A *26:23 1.76557e-05
10 *57:A *39:47 0.000213869
11 *21:10 *50:A 5.67058e-05
12 *21:10 *22:10 0.00014504
13 *21:10 *37:44 0.000197479
14 *21:10 *38:58 2.35393e-05
15 *21:14 *60:B1 2.64616e-05
16 *50:B *21:10 5.50106e-05
*RES
1 *49:X *21:10 41.2314 
2 *21:10 *21:14 15.6214 
3 *21:14 *51:A 23 
4 *21:14 *57:A 28.4271 
*END

*D_NET *22 0.000486827
*CONN
*I *51:B I *D sky130_fd_sc_hd__nand2_1
*I *50:Y O *D sky130_fd_sc_hd__nand2_1
*CAP
1 *51:B 0
2 *50:Y 6.29119e-05
3 *22:10 6.29119e-05
4 *22:10 *60:B1 1.59094e-05
5 *22:10 *38:58 0.000145049
6 *50:B *22:10 5.50049e-05
7 *21:10 *22:10 0.00014504
*RES
1 *50:Y *22:10 40.5271 
2 *22:10 *51:B 38 
*END

*D_NET *23 0.00102685
*CONN
*I *53:A3 I *D sky130_fd_sc_hd__a31o_1
*I *51:Y O *D sky130_fd_sc_hd__nand2_1
*CAP
1 *53:A3 0
2 *51:Y 0.000212446
3 *23:10 0.000212446
4 *23:10 *44:B 0
5 *23:10 *60:A3 0.000147086
6 *23:10 *30:10 0.000367413
7 *23:10 *34:27 1.94522e-05
8 *23:10 *37:21 0
9 *23:10 *37:38 0
10 *23:10 *39:8 5.37348e-06
11 *12:8 *23:10 6.26356e-05
*RES
1 *51:Y *23:10 44.7736 
2 *23:10 *53:A3 38 
*END

*D_NET *24 0.000347689
*CONN
*I *53:B1 I *D sky130_fd_sc_hd__a31o_1
*I *52:X O *D sky130_fd_sc_hd__a21o_1
*CAP
1 *53:B1 3.3586e-05
2 *52:X 3.3586e-05
3 *53:B1 *53:A1 0.000140259
4 *53:A2 *53:B1 0.000140259
*RES
1 *52:X *53:B1 47.5743 
*END

*D_NET *25 0.000344276
*CONN
*I *56:A I *D sky130_fd_sc_hd__nand2_1
*I *54:X O *D sky130_fd_sc_hd__a21o_1
*CAP
1 *56:A 8.41345e-05
2 *54:X 8.49654e-05
3 *25:8 0.0001691
4 *56:A *54:B1 0
5 *25:8 *54:A1 6.07611e-06
6 *25:8 *26:23 0
7 *25:8 *27:8 0
*RES
1 *54:X *25:8 39.9057 
2 *25:8 *56:A 39.5743 
*END

*D_NET *26 0.00118001
*CONN
*I *56:B I *D sky130_fd_sc_hd__nand2_1
*I *60:B1 I *D sky130_fd_sc_hd__o31ai_1
*I *55:Y O *D sky130_fd_sc_hd__nand3_1
*CAP
1 *56:B 0
2 *60:B1 0.000205382
3 *55:Y 0
4 *26:23 0.000142962
5 *26:4 0.000348344
6 *60:B1 *60:A3 6.41361e-05
7 *26:23 *48:B 0
8 *26:23 *54:B1 0.000141954
9 *26:23 *27:8 9.26005e-05
10 *50:B *60:B1 6.22909e-05
11 *57:A *60:B1 5.82674e-05
12 *57:A *26:23 1.76557e-05
13 *20:8 *60:B1 4.04598e-06
14 *21:14 *60:B1 2.64616e-05
15 *22:10 *60:B1 1.59094e-05
16 *25:8 *26:23 0
*RES
1 *55:Y *26:4 23 
2 *26:4 *60:B1 27.9507 
3 *26:4 *26:23 33.9564 
4 *26:23 *56:B 23 
*END

*D_NET *27 0.000290457
*CONN
*I *57:B I *D sky130_fd_sc_hd__xnor2_1
*I *56:Y O *D sky130_fd_sc_hd__nand2_1
*CAP
1 *57:B 0
2 *56:Y 9.89284e-05
3 *27:8 9.89284e-05
4 *27:8 *48:B 0
5 *27:8 *54:A1 0
6 *27:8 *40:35 0
7 *25:8 *27:8 0
8 *26:23 *27:8 9.26005e-05
*RES
1 *56:Y *27:8 40.2579 
2 *27:8 *57:B 38 
*END

*D_NET *28 0.000914737
*CONN
*I *59:A2 I *D sky130_fd_sc_hd__o21ai_1
*I *57:Y O *D sky130_fd_sc_hd__xnor2_1
*CAP
1 *59:A2 0
2 *57:Y 0.000153699
3 *28:10 0.000153699
4 *28:10 *59:B1 5.70419e-05
5 *28:10 *74:A 9.45849e-05
6 *28:10 *38:50 5.38135e-05
7 *28:10 *39:47 0.000401899
8 *28:10 *40:8 0
*RES
1 *57:Y *28:10 30.2086 
2 *28:10 *59:A2 23 
*END

*D_NET *29 0.000785782
*CONN
*I *59:B1 I *D sky130_fd_sc_hd__o21ai_1
*I *58:Y O *D sky130_fd_sc_hd__a21oi_1
*CAP
1 *59:B1 3.96434e-05
2 *58:Y 0.000154421
3 *29:8 0.000194064
4 *59:B1 *40:8 0
5 *29:8 *34:45 0
6 *29:8 *38:31 1.47563e-05
7 *13:8 *29:8 5.91176e-05
8 *16:12 *29:8 0.000255292
9 *17:53 *29:8 1.14452e-05
10 *28:10 *59:B1 5.70419e-05
*RES
1 *58:Y *29:8 41.6664 
2 *29:8 *59:B1 39.0979 
*END

*D_NET *30 0.00264531
*CONN
*I *63:C I *D sky130_fd_sc_hd__nand4_1
*I *62:A2 I *D sky130_fd_sc_hd__a31o_1
*I *60:Y O *D sky130_fd_sc_hd__o31ai_1
*CAP
1 *63:C 6.90697e-05
2 *62:A2 0.0001922
3 *60:Y 0.00024779
4 *30:12 0.000377634
5 *30:10 0.000364154
6 *62:A2 *62:A3 0.000116129
7 *62:A2 *62:B1 6.68617e-05
8 *62:A2 *34:27 4.9346e-05
9 *62:A2 *34:31 4.78707e-05
10 *62:A2 *35:23 2.22017e-05
11 *63:C *63:D 8.86508e-05
12 *63:C *33:8 4.42688e-05
13 *63:C *35:8 0
14 *30:10 *60:A1 0
15 *30:10 *34:27 0
16 *30:10 *37:44 0.000103397
17 *30:12 *63:D 1.96584e-05
18 *30:12 *31:10 0.000126175
19 *30:12 *33:8 0.000146634
20 *30:12 *34:27 0
21 *44:A *30:10 0
22 *17:12 *30:10 0.000171155
23 *17:12 *30:12 2.47015e-05
24 *23:10 *30:10 0.000367413
*RES
1 *60:Y *30:10 46.3375 
2 *30:10 *30:12 4.19464 
3 *30:12 *62:A2 43.4271 
4 *30:12 *63:C 40.2579 
*END

*D_NET *31 0.00239779
*CONN
*I *62:A3 I *D sky130_fd_sc_hd__a31o_1
*I *63:D I *D sky130_fd_sc_hd__nand4_1
*I *61:Y O *D sky130_fd_sc_hd__nand2b_1
*CAP
1 *62:A3 0.000125935
2 *63:D 9.99343e-05
3 *61:Y 0.000293486
4 *31:10 0.000519355
5 *62:A3 *34:31 3.52383e-05
6 *62:A3 *35:23 2.31116e-05
7 *62:A3 *35:27 0
8 *63:D *62:B1 2.93747e-05
9 *63:D *35:23 0.000110441
10 *31:10 *53:A1 9.74235e-05
11 *31:10 *61:B 0.000308946
12 *31:10 *32:8 5.03449e-05
13 *31:10 *34:27 2.45549e-06
14 *31:10 *35:23 3.64652e-05
15 *31:10 *35:27 5.62433e-06
16 *31:10 *37:38 0
17 *53:A2 *31:10 0.000139357
18 *62:A2 *62:A3 0.000116129
19 *63:C *63:D 8.86508e-05
20 *66:D *31:10 0
21 *17:12 *31:10 0.000169683
22 *30:12 *63:D 1.96584e-05
23 *30:12 *31:10 0.000126175
*RES
1 *61:Y *31:10 47.0832 
2 *31:10 *63:D 41.4075 
3 *31:10 *62:A3 41.0139 
*END

*D_NET *32 0.000702526
*CONN
*I *64:A2 I *D sky130_fd_sc_hd__a31o_1
*I *62:X O *D sky130_fd_sc_hd__a31o_1
*CAP
1 *64:A2 0.000155426
2 *62:X 2.46804e-05
3 *32:8 0.000180107
4 *64:A2 *34:27 0
5 *64:A2 *34:31 5.26733e-06
6 *64:A2 *36:8 1.41077e-05
7 *32:8 *35:23 9.48318e-05
8 *64:A1 *64:A2 0.000161198
9 *68:D *64:A2 5.55387e-06
10 *15:10 *64:A2 1.10088e-05
11 *31:10 *32:8 5.03449e-05
*RES
1 *62:X *32:8 39.2014 
2 *32:8 *64:A2 41.5214 
*END

*D_NET *33 0.000531988
*CONN
*I *64:A3 I *D sky130_fd_sc_hd__a31o_1
*I *63:Y O *D sky130_fd_sc_hd__nand4_1
*CAP
1 *64:A3 0
2 *63:Y 0.000125115
3 *33:8 0.000125115
4 *33:8 *34:27 2.82307e-05
5 *33:8 *35:8 0
6 *63:C *33:8 4.42688e-05
7 *14:8 *33:8 6.26252e-05
8 *30:12 *33:8 0.000146634
*RES
1 *63:Y *33:8 42.7229 
2 *33:8 *64:A3 38 
*END

*D_NET *34 0.00444128
*CONN
*I *68:CLK I *D sky130_fd_sc_hd__dfxtp_1
*I *65:CLK I *D sky130_fd_sc_hd__dfxtp_1
*I *67:CLK I *D sky130_fd_sc_hd__dfxtp_1
*I *66:CLK I *D sky130_fd_sc_hd__dfxtp_1
*I *69:X O *D sky130_fd_sc_hd__buf_1
*CAP
1 *68:CLK 0
2 *65:CLK 2.34823e-05
3 *67:CLK 0
4 *66:CLK 0
5 *69:X 0
6 *34:45 0.000519979
7 *34:31 0.000942466
8 *34:27 0.00101507
9 *34:12 0.000100931
10 *34:4 0.000716998
11 *34:12 *61:A_N 0
12 *34:12 *36:8 0
13 *34:12 *37:21 0
14 *34:27 *61:A_N 0
15 *34:27 *61:B 2.35625e-05
16 *34:27 *35:8 0
17 *34:27 *35:12 0
18 *34:27 *35:23 0
19 *34:27 *36:8 0
20 *34:31 *62:B1 3.06338e-05
21 *34:31 *38:25 1.02949e-05
22 *34:31 *38:31 0
23 *34:45 *38:21 2.45549e-06
24 *34:45 *38:25 5.38135e-05
25 *34:45 *40:8 5.62955e-05
26 *46:A2 *34:45 0
27 *62:A2 *34:27 4.9346e-05
28 *62:A2 *34:31 4.78707e-05
29 *62:A3 *34:31 3.52383e-05
30 *64:A2 *34:27 0
31 *64:A2 *34:31 5.26733e-06
32 *65:D *34:45 8.38361e-05
33 *66:D *34:27 6.13871e-05
34 *67:D *34:45 8.38361e-05
35 *68:D *34:27 0.000185129
36 *69:A *34:12 0.000133892
37 *70:A *34:27 0
38 *71:A *34:27 0
39 *11:8 *34:45 3.24466e-05
40 *12:8 *34:27 1.01436e-05
41 *13:8 *34:45 2.76611e-06
42 *14:8 *34:27 0.000122627
43 *15:6 *34:31 1.18615e-05
44 *15:10 *34:31 1.62826e-05
45 *16:6 *34:31 0
46 *17:34 *34:45 0
47 *17:53 *34:45 1.32314e-05
48 *23:10 *34:27 1.94522e-05
49 *29:8 *34:45 0
50 *30:10 *34:27 0
51 *30:12 *34:27 0
52 *31:10 *34:27 2.45549e-06
53 *33:8 *34:27 2.82307e-05
*RES
1 *69:X *34:4 23 
2 *34:4 *34:12 32.5271 
3 *34:12 *66:CLK 23 
4 *34:4 *34:27 43.92 
5 *34:27 *34:31 8.74143 
6 *34:31 *34:45 40.5229 
7 *34:45 *67:CLK 23 
8 *34:31 *65:CLK 23.4971 
9 *34:27 *68:CLK 23 
*END

*D_NET *35 0.00371257
*CONN
*I *62:A1 I *D sky130_fd_sc_hd__a31o_1
*I *43:A I *D sky130_fd_sc_hd__nand2_1
*I *45:A I *D sky130_fd_sc_hd__nor2_1
*I *53:A1 I *D sky130_fd_sc_hd__a31o_1
*I *63:A I *D sky130_fd_sc_hd__nand4_1
*I *70:X O *D sky130_fd_sc_hd__buf_1
*CAP
1 *62:A1 0.000116215
2 *43:A 8.63523e-06
3 *45:A 0
4 *53:A1 0.000262786
5 *63:A 0
6 *70:X 0.000218989
7 *35:51 0.00021664
8 *35:27 0.000301266
9 *35:23 0.000473885
10 *35:12 0.000444713
11 *35:8 0.000320086
12 *43:A *38:31 0
13 *53:A1 *61:B 0
14 *53:A1 *37:38 0
15 *35:12 *41:19 0.000272383
16 *35:23 *62:B1 7.20119e-05
17 *35:23 *41:19 0.00010018
18 *44:A *53:A1 8.62783e-05
19 *52:B1 *53:A1 5.90675e-06
20 *53:A2 *53:A1 2.32004e-05
21 *53:B1 *53:A1 0.000140259
22 *62:A2 *35:23 2.22017e-05
23 *62:A3 *35:23 2.31116e-05
24 *62:A3 *35:27 0
25 *63:C *35:8 0
26 *63:D *35:23 0.000110441
27 *71:A *35:8 0
28 *15:25 *53:A1 0.000185104
29 *17:12 *53:A1 6.98871e-05
30 *17:21 *53:A1 4.04598e-06
31 *31:10 *53:A1 9.74235e-05
32 *31:10 *35:23 3.64652e-05
33 *31:10 *35:27 5.62433e-06
34 *32:8 *35:23 9.48318e-05
35 *33:8 *35:8 0
36 *34:27 *35:8 0
37 *34:27 *35:12 0
38 *34:27 *35:23 0
*RES
1 *70:X *35:8 42.7229 
2 *35:8 *35:12 18.0036 
3 *35:12 *63:A 23 
4 *35:12 *35:23 24.2075 
5 *35:23 *35:27 0.9425 
6 *35:27 *53:A1 45.0636 
7 *35:27 *45:A 38 
8 *35:23 *35:51 1.09786 
9 *35:51 *43:A 38.3211 
10 *35:51 *62:A1 41.0554 
*END

*D_NET *36 0.00159673
*CONN
*I *42:A I *D sky130_fd_sc_hd__inv_2
*I *45:B I *D sky130_fd_sc_hd__nor2_1
*I *71:X O *D sky130_fd_sc_hd__buf_1
*CAP
1 *42:A 4.16657e-05
2 *45:B 1.37458e-05
3 *71:X 0.000405388
4 *36:8 0.0004608
5 *36:8 *61:B 0.000141511
6 *43:B *42:A 1.14154e-05
7 *43:B *45:B 3.54864e-06
8 *64:A1 *36:8 0.00016121
9 *64:A2 *36:8 1.41077e-05
10 *68:D *36:8 0
11 *70:A *36:8 3.22879e-05
12 *15:6 *42:A 2.4754e-05
13 *15:10 *42:A 8.1796e-05
14 *15:10 *45:B 2.73062e-05
15 *15:10 *36:8 2.18109e-05
16 *16:6 *42:A 0.00010018
17 *18:6 *42:A 4.19743e-05
18 *18:6 *36:8 1.32314e-05
19 *34:12 *36:8 0
20 *34:27 *36:8 0
*RES
1 *71:X *36:8 32.2179 
2 *36:8 *45:B 23.4971 
3 *36:8 *42:A 25.5479 
*END

*D_NET *37 0.00307344
*CONN
*I *44:B I *D sky130_fd_sc_hd__nor2_1
*I *49:A I *D sky130_fd_sc_hd__or2_1
*I *50:A I *D sky130_fd_sc_hd__nand2_1
*I *61:A_N I *D sky130_fd_sc_hd__nand2b_1
*I *60:A1 I *D sky130_fd_sc_hd__o31ai_1
*I *72:X O *D sky130_fd_sc_hd__buf_1
*CAP
1 *44:B 3.09429e-05
2 *49:A 0
3 *50:A 5.03893e-05
4 *61:A_N 0.000114326
5 *60:A1 0.000158543
6 *72:X 8.05787e-05
7 *37:44 0.000309609
8 *37:38 0.000564322
9 *37:21 0.000497979
10 *37:8 0.000348615
11 *44:B *39:8 2.30292e-05
12 *50:A *48:B 0.000141954
13 *60:A1 *48:B 0
14 *60:A1 *38:58 0
15 *60:A1 *38:66 6.69902e-05
16 *37:38 *38:66 0
17 *37:44 *52:A1 0
18 *37:44 *38:50 6.00827e-05
19 *37:44 *38:66 0
20 *50:B *50:A 5.25017e-05
21 *53:A1 *37:38 0
22 *53:A2 *37:38 0
23 *66:D *60:A1 0
24 *66:D *37:8 0
25 *66:D *37:38 0.00014196
26 *69:A *61:A_N 0
27 *12:8 *61:A_N 0
28 *17:12 *44:B 5.41385e-05
29 *17:12 *37:38 6.17437e-06
30 *20:8 *50:A 1.37232e-05
31 *21:10 *50:A 5.67058e-05
32 *21:10 *37:44 0.000197479
33 *23:10 *44:B 0
34 *23:10 *37:21 0
35 *23:10 *37:38 0
36 *30:10 *60:A1 0
37 *30:10 *37:44 0.000103397
38 *31:10 *37:38 0
39 *34:12 *61:A_N 0
40 *34:12 *37:21 0
41 *34:27 *61:A_N 0
*RES
1 *72:X *37:8 39.5743 
2 *37:8 *60:A1 41.2521 
3 *37:8 *37:21 2.43393 
4 *37:21 *61:A_N 40.4339 
5 *37:21 *37:38 20.3754 
6 *37:38 *37:44 35.7793 
7 *37:44 *50:A 25.5686 
8 *37:44 *49:A 23 
9 *37:38 *44:B 24.0979 
*END

*D_NET *38 0.00599515
*CONN
*I *46:A1 I *D sky130_fd_sc_hd__a21oi_1
*I *47:A1 I *D sky130_fd_sc_hd__o21ai_1
*I *55:A I *D sky130_fd_sc_hd__nand3_1
*I *48:A I *D sky130_fd_sc_hd__xor2_1
*I *60:A2 I *D sky130_fd_sc_hd__o31ai_1
*I *54:A1 I *D sky130_fd_sc_hd__a21o_1
*I *73:A I *D sky130_fd_sc_hd__buf_2
*I *65:Q O *D sky130_fd_sc_hd__dfxtp_1
*CAP
1 *46:A1 0
2 *47:A1 0
3 *55:A 0
4 *48:A 0
5 *60:A2 0
6 *54:A1 0.000254579
7 *73:A 0
8 *65:Q 9.05842e-05
9 *38:66 0.000207885
10 *38:58 0.000558302
11 *38:50 0.000691873
12 *38:31 0.000871136
13 *38:25 0.000388668
14 *38:21 0.00036344
15 *38:12 0.000286362
16 *38:8 0.000127074
17 *54:A1 *54:B1 1.24376e-05
18 *54:A1 *39:47 2.47815e-05
19 *54:A1 *40:35 0
20 *38:31 *40:18 4.3407e-05
21 *38:31 *40:35 0
22 *38:50 *48:B 1.14452e-05
23 *38:50 *52:A1 2.46345e-05
24 *38:50 *39:8 5.3304e-05
25 *38:50 *39:10 0.00010803
26 *38:50 *39:12 5.01986e-05
27 *38:50 *39:47 3.66328e-05
28 *38:50 *40:18 0
29 *38:58 *48:B 0.000688697
30 *38:66 *48:B 0
31 *43:A *38:31 0
32 *46:A2 *38:21 1.14876e-05
33 *46:A2 *38:25 3.06099e-05
34 *47:A2 *38:25 1.5769e-05
35 *47:A2 *38:31 6.17437e-06
36 *60:A1 *38:58 0
37 *60:A1 *38:66 6.69902e-05
38 *16:6 *38:31 2.64616e-05
39 *16:12 *38:31 0.000388877
40 *17:12 *38:50 2.45549e-06
41 *17:21 *38:50 6.75168e-05
42 *17:34 *38:50 0
43 *17:53 *38:25 9.84851e-05
44 *17:53 *38:31 1.69668e-05
45 *20:8 *38:58 0
46 *21:10 *38:58 2.35393e-05
47 *22:10 *38:58 0.000145049
48 *25:8 *54:A1 6.07611e-06
49 *27:8 *54:A1 0
50 *28:10 *38:50 5.38135e-05
51 *29:8 *38:31 1.47563e-05
52 *34:31 *38:25 1.02949e-05
53 *34:31 *38:31 0
54 *34:45 *38:21 2.45549e-06
55 *34:45 *38:25 5.38135e-05
56 *37:38 *38:66 0
57 *37:44 *38:50 6.00827e-05
58 *37:44 *38:66 0
*RES
1 *65:Q *38:8 39.9057 
2 *38:8 *38:12 15.6214 
3 *38:12 *73:A 23 
4 *38:12 *38:21 5.40643 
5 *38:21 *38:25 3.50071 
6 *38:25 *38:31 22.105 
7 *38:31 *54:A1 42.4121 
8 *38:31 *38:50 38.9486 
9 *38:50 *38:58 24.7771 
10 *38:58 *38:66 34.2982 
11 *38:66 *60:A2 23 
12 *38:58 *48:A 23 
13 *38:50 *55:A 38 
14 *38:25 *47:A1 23 
15 *38:21 *46:A1 23 
*END

*D_NET *39 0.0056868
*CONN
*I *52:A1 I *D sky130_fd_sc_hd__a21o_1
*I *74:A I *D sky130_fd_sc_hd__buf_2
*I *54:A2 I *D sky130_fd_sc_hd__a21o_1
*I *60:A3 I *D sky130_fd_sc_hd__o31ai_1
*I *55:B I *D sky130_fd_sc_hd__nand3_1
*I *48:B I *D sky130_fd_sc_hd__xor2_1
*I *66:Q O *D sky130_fd_sc_hd__dfxtp_1
*CAP
1 *52:A1 0.000151821
2 *74:A 0.000370263
3 *54:A2 8.99782e-05
4 *60:A3 0.000109147
5 *55:B 0
6 *48:B 0.000281941
7 *66:Q 4.32346e-05
8 *39:47 0.000674414
9 *39:34 0.000323319
10 *39:12 0.000310762
11 *39:10 6.16496e-05
12 *39:8 0.000227884
13 *48:B *40:35 6.07611e-06
14 *52:A1 *40:35 0.000202965
15 *54:A2 *54:B1 0
16 *74:A *40:8 0
17 *39:10 *40:35 6.01596e-05
18 *39:12 *40:35 2.96051e-05
19 *39:47 *54:B1 0.000114584
20 *44:A *52:A1 0.000147271
21 *44:B *39:8 2.30292e-05
22 *50:A *48:B 0.000141954
23 *50:B *48:B 4.21352e-05
24 *52:B1 *52:A1 9.5877e-05
25 *54:A1 *39:47 2.47815e-05
26 *57:A *60:A3 0.00019254
27 *57:A *39:47 0.000213869
28 *60:A1 *48:B 0
29 *60:B1 *60:A3 6.41361e-05
30 *17:12 *39:8 2.80924e-06
31 *17:21 *52:A1 3.16784e-05
32 *20:8 *48:B 2.70318e-05
33 *20:8 *60:A3 0
34 *23:10 *60:A3 0.000147086
35 *23:10 *39:8 5.37348e-06
36 *26:23 *48:B 0
37 *27:8 *48:B 0
38 *28:10 *74:A 9.45849e-05
39 *28:10 *39:47 0.000401899
40 *37:44 *52:A1 0
41 *38:50 *48:B 1.14452e-05
42 *38:50 *52:A1 2.46345e-05
43 *38:50 *39:8 5.3304e-05
44 *38:50 *39:10 0.00010803
45 *38:50 *39:12 5.01986e-05
46 *38:50 *39:47 3.66328e-05
47 *38:58 *48:B 0.000688697
48 *38:66 *48:B 0
*RES
1 *66:Q *39:8 39.5743 
2 *39:8 *39:10 1.55357 
3 *39:10 *39:12 0.849286 
4 *39:12 *48:B 46.7207 
5 *39:12 *55:B 38 
6 *39:10 *39:34 15 
7 *39:34 *60:A3 27.1221 
8 *39:34 *39:47 8.72071 
9 *39:47 *54:A2 25.4236 
10 *39:47 *74:A 31.1407 
11 *39:8 *52:A1 42.8264 
*END

*D_NET *40 0.00549197
*CONN
*I *75:A I *D sky130_fd_sc_hd__buf_2
*I *58:A1 I *D sky130_fd_sc_hd__a21oi_1
*I *55:C I *D sky130_fd_sc_hd__nand3_1
*I *54:B1 I *D sky130_fd_sc_hd__a21o_1
*I *61:B I *D sky130_fd_sc_hd__nand2b_1
*I *67:Q O *D sky130_fd_sc_hd__dfxtp_1
*CAP
1 *75:A 0
2 *58:A1 0
3 *55:C 0
4 *54:B1 0.000212159
5 *61:B 0.000315646
6 *67:Q 3.33891e-05
7 *40:62 0.000299268
8 *40:35 0.000492342
9 *40:18 0.000819629
10 *40:8 0.000603172
11 *40:6 0.000712029
12 counter[1] *40:62 4.29668e-05
13 *44:A *40:35 4.17929e-05
14 *46:A2 *40:8 0
15 *48:B *40:35 6.07611e-06
16 *52:A1 *40:35 0.000202965
17 *52:A2 *40:18 9.00922e-05
18 *52:B1 *61:B 1.39317e-05
19 *52:B1 *40:18 2.07355e-05
20 *53:A1 *61:B 0
21 *53:A2 *61:B 6.68822e-05
22 *54:A1 *54:B1 1.24376e-05
23 *54:A1 *40:35 0
24 *54:A2 *54:B1 0
25 *56:A *54:B1 0
26 *57:A *54:B1 8.57986e-05
27 *59:B1 *40:8 0
28 *67:D *40:8 8.38361e-05
29 *74:A *40:8 0
30 *15:25 *40:35 3.0647e-05
31 *17:34 *40:8 9.41704e-05
32 *17:34 *40:18 0.000140259
33 *17:53 *40:8 1.03955e-05
34 *18:6 *61:B 1.94693e-05
35 *18:6 *40:18 0.000121856
36 *26:23 *54:B1 0.000141954
37 *27:8 *40:35 0
38 *28:10 *40:8 0
39 *31:10 *61:B 0.000308946
40 *34:27 *61:B 2.35625e-05
41 *34:45 *40:8 5.62955e-05
42 *36:8 *61:B 0.000141511
43 *38:31 *40:18 4.3407e-05
44 *38:31 *40:35 0
45 *38:50 *40:18 0
46 *39:10 *40:35 6.01596e-05
47 *39:12 *40:35 2.96051e-05
48 *39:47 *54:B1 0.000114584
*RES
1 *67:Q *40:6 23.6214 
2 *40:6 *40:8 8.24429 
3 *40:8 *40:18 36.96 
4 *40:18 *61:B 31.3168 
5 *40:18 *40:35 36.8357 
6 *40:35 *54:B1 28.9036 
7 *40:35 *55:C 23 
8 *40:8 *58:A1 23 
9 *40:6 *40:62 35.075 
10 *40:62 *75:A 23 
*END

*D_NET *41 0.00233819
*CONN
*I *62:B1 I *D sky130_fd_sc_hd__a31o_1
*I *63:B I *D sky130_fd_sc_hd__nand4_1
*I *76:A I *D sky130_fd_sc_hd__buf_2
*I *68:Q O *D sky130_fd_sc_hd__dfxtp_1
*CAP
1 *62:B1 0.000432565
2 *63:B 0
3 *76:A 0
4 *68:Q 0.000248124
5 *41:19 0.00063525
6 *41:10 0.000450809
7 *62:A2 *62:B1 6.68617e-05
8 *63:D *62:B1 2.93747e-05
9 *70:A *41:10 0
10 *34:31 *62:B1 3.06338e-05
11 *35:12 *41:19 0.000272383
12 *35:23 *62:B1 7.20119e-05
13 *35:23 *41:19 0.00010018
*RES
1 *68:Q *41:10 28.8829 
2 *41:10 *76:A 23 
3 *41:10 *41:19 5.75857 
4 *41:19 *63:B 23 
5 *41:19 *62:B1 33.7714 
*END
