*SPEF "ieee 1481-1999"
*DESIGN "counter_dut"
*DATE "10:34:30 Wednesday December 04, 2024"
*VENDOR "The OpenROAD Project"
*PROGRAM "OpenROAD"
*VERSION "edf00dff99f6c40d67a30c0e22a8191c5d2ed9d6"
*DESIGN_FLOW "NAME_SCOPE LOCAL" "PIN_CAP NONE"
*DIVIDER /
*DELIMITER :
*BUS_DELIMITER []
*T_UNIT 1 NS
*C_UNIT 1 PF
*R_UNIT 1 OHM
*L_UNIT 1 HENRY

*NAME_MAP
*1 clk
*2 counter[0]
*3 counter[1]
*4 counter[2]
*5 counter[3]
*6 enable
*7 reset
*8 up_down
*11 _00_
*12 _01_
*13 _02_
*14 _03_
*15 _04_
*16 _05_
*17 _06_
*18 _07_
*19 _08_
*20 _09_
*21 _10_
*22 _11_
*23 _12_
*24 _13_
*25 _14_
*26 _15_
*27 _16_
*28 _17_
*29 _18_
*30 _19_
*31 _20_
*32 _21_
*33 _22_
*34 clknet_0_clk
*35 clknet_1_0__leaf_clk
*36 clknet_1_1__leaf_clk
*37 net1
*38 net2
*39 net3
*40 net4
*41 net5
*42 net6
*43 net7
*44 _23_
*45 _24_
*46 _25_
*47 _26_
*48 _27_
*49 _28_
*50 _29_
*51 _30_
*52 _31_
*53 _32_
*54 _33_
*55 _34_
*56 _35_
*57 _36_
*58 _37_
*59 _38_
*60 _39_
*61 _40_
*62 _41_
*63 _42_
*64 _43_
*65 _44_
*66 _45_
*67 _46_
*68 _47_
*69 _48_
*70 _49_
*71 clkbuf_0_clk
*72 clkbuf_1_0__f_clk
*73 clkbuf_1_1__f_clk
*74 input1
*75 input2
*76 input3
*77 output4
*78 output5
*79 output6
*80 output7

*PORTS
clk I
counter[0] O
counter[1] O
counter[2] O
counter[3] O
enable I
reset I
up_down I

*D_NET *1 0.00198707
*CONN
*P clk I
*I *71:A I *D sky130_fd_sc_hd__clkbuf_16
*CAP
1 clk 0.0008593
2 *71:A 0
3 *1:11 0.0008593
4 *1:11 *74:A 5.32136e-05
5 *1:11 *76:A 5.08354e-05
6 *1:11 *15:35 1.19796e-05
7 *1:11 *39:20 0.000152446
8 *1:11 *41:87 0
*RES
1 clk *1:11 27.2135 
2 *1:11 *71:A 23 
*END

*D_NET *2 0.0003907
*CONN
*P counter[0] O
*I *77:X O *D sky130_fd_sc_hd__buf_1
*CAP
1 counter[0] 0.000169929
2 *77:X 0.000169929
3 counter[0] counter[1] 5.08417e-05
*RES
1 *77:X counter[0] 47.5256 
*END

*D_NET *3 0.000512162
*CONN
*P counter[1] O
*I *78:X O *D sky130_fd_sc_hd__buf_1
*CAP
1 counter[1] 0.000204053
2 *78:X 0.000204053
3 counter[1] counter[2] 5.32136e-05
4 counter[1] *42:10 0
5 counter[0] counter[1] 5.08417e-05
*RES
1 *78:X counter[1] 48.9342 
*END

*D_NET *4 0.000534452
*CONN
*P counter[2] O
*I *79:X O *D sky130_fd_sc_hd__buf_1
*CAP
1 counter[2] 0.000240619
2 *79:X 0.000240619
3 counter[2] *40:29 0
4 counter[1] counter[2] 5.32136e-05
*RES
1 *79:X counter[2] 47.4311 
*END

*D_NET *5 0.000325754
*CONN
*P counter[3] O
*I *80:X O *D sky130_fd_sc_hd__buf_1
*CAP
1 counter[3] 0.000137459
2 *80:X 0.000137459
3 counter[3] *75:A 5.08354e-05
*RES
1 *80:X counter[3] 46.8213 
*END

*D_NET *6 0.000429573
*CONN
*P enable I
*I *74:A I *D sky130_fd_sc_hd__buf_1
*CAP
1 enable 0.00013581
2 *74:A 0.00013581
3 *74:A *70:CLK 5.39028e-05
4 *74:A *75:A 5.08354e-05
5 *1:11 *74:A 5.32136e-05
*RES
1 enable *74:A 47.8778 
*END

*D_NET *7 0.0004769
*CONN
*P reset I
*I *75:A I *D sky130_fd_sc_hd__buf_1
*CAP
1 reset 0.000153285
2 *75:A 0.000153285
3 *75:A *70:CLK 6.86591e-05
4 counter[3] *75:A 5.08354e-05
5 *74:A *75:A 5.08354e-05
*RES
1 reset *75:A 48.2299 
*END

*D_NET *8 0.000514198
*CONN
*P up_down I
*I *76:A I *D sky130_fd_sc_hd__buf_1
*CAP
1 up_down 0.000231681
2 *76:A 0.000231681
3 *76:A *39:10 0
4 *1:11 *76:A 5.08354e-05
*RES
1 up_down *76:A 48.9342 
*END

*D_NET *11 0.000606416
*CONN
*I *67:D I *D sky130_fd_sc_hd__dfxtp_1
*I *49:Y O *D sky130_fd_sc_hd__o21ai_1
*CAP
1 *67:D 7.84271e-05
2 *49:Y 7.45743e-05
3 *11:8 0.000153001
4 *67:D *48:A1 0.000102732
5 *67:D *49:A2 0
6 *67:D *19:10 2.11965e-05
7 *67:D *40:8 8.43466e-05
8 *11:8 *40:19 9.21378e-05
*RES
1 *49:Y *11:8 40.2579 
2 *11:8 *67:D 40.0973 
*END

*D_NET *12 0.000786772
*CONN
*I *68:D I *D sky130_fd_sc_hd__dfxtp_1
*I *55:X O *D sky130_fd_sc_hd__a31o_1
*CAP
1 *68:D 0.00010884
2 *55:X 0.000184264
3 *12:8 0.000293104
4 *68:D *39:14 0
5 *12:8 *63:A_N 0
6 *12:8 *23:10 0.000200565
7 *12:8 *39:10 0
*RES
1 *55:X *12:8 43.075 
2 *12:8 *68:D 40.0973 
*END

*D_NET *13 0.000628236
*CONN
*I *69:D I *D sky130_fd_sc_hd__dfxtp_1
*I *61:Y O *D sky130_fd_sc_hd__o21ai_1
*CAP
1 *69:D 0
2 *61:Y 0.000185634
3 *13:10 0.000185634
4 *13:10 *49:A2 0
5 *13:10 *49:B1 0
6 *13:10 *61:A1 0.000109595
7 *13:10 *62:A2 3.20198e-05
8 *13:10 *72:A 9.58714e-05
9 *13:10 *17:38 0
10 *13:10 *34:8 1.94812e-05
*RES
1 *61:Y *13:10 27.3707 
2 *13:10 *69:D 23 
*END

*D_NET *14 0.000781131
*CONN
*I *70:D I *D sky130_fd_sc_hd__dfxtp_1
*I *66:X O *D sky130_fd_sc_hd__a31o_1
*CAP
1 *70:D 0
2 *66:X 0.000340492
3 *14:8 0.000340492
4 *14:8 *47:B 0
5 *14:8 *54:B1 3.70553e-06
6 *14:8 *66:A2 1.24376e-05
7 *14:8 *66:B1 4.2062e-05
8 *14:8 *80:A 0
9 *14:8 *18:18 1.99429e-05
10 *14:8 *31:12 0
11 *14:8 *32:10 2.19998e-05
12 *14:8 *43:29 0
*RES
1 *66:X *14:8 29.8823 
2 *14:8 *70:D 23 
*END

*D_NET *15 0.00298532
*CONN
*I *46:A I *D sky130_fd_sc_hd__nor2_1
*I *45:B I *D sky130_fd_sc_hd__nand2_1
*I *66:A1 I *D sky130_fd_sc_hd__a31o_1
*I *55:A2 I *D sky130_fd_sc_hd__a31o_1
*I *44:Y O *D sky130_fd_sc_hd__inv_2
*CAP
1 *46:A 0
2 *45:B 4.72144e-05
3 *66:A1 0
4 *55:A2 0
5 *44:Y 0.000161914
6 *15:35 0.000496538
7 *15:19 0.000496352
8 *15:12 4.70292e-05
9 *15:10 0.000161914
10 *45:B *66:B1 2.91639e-05
11 *45:B *33:14 7.24977e-05
12 *15:10 *70:CLK 0
13 *15:10 *23:10 1.14452e-05
14 *15:10 *30:12 0.000170604
15 *15:10 *31:12 0.000336279
16 *15:10 *37:8 1.91431e-05
17 *15:10 *37:14 7.49159e-05
18 *15:10 *37:32 8.97286e-06
19 *15:19 *55:B1 0.00010018
20 *15:19 *37:32 5.3304e-05
21 *15:19 *37:45 1.56762e-05
22 *15:19 *42:51 9.45591e-05
23 *15:35 *45:A 0
24 *15:35 *55:B1 2.4754e-05
25 *15:35 *66:B1 6.39489e-06
26 *15:35 *18:18 2.31209e-05
27 *15:35 *18:24 8.4047e-05
28 *15:35 *24:8 0
29 *15:35 *30:12 7.26024e-05
30 *15:35 *30:23 9.80465e-05
31 *15:35 *32:10 0
32 *15:35 *33:14 3.70419e-05
33 *15:35 *37:45 5.68311e-05
34 *15:35 *39:20 0
35 *15:35 *41:87 0.000117799
36 *15:35 *42:51 5.50049e-05
37 *1:11 *15:35 1.19796e-05
*RES
1 *44:Y *15:10 43.7379 
2 *15:10 *15:12 15 
3 *15:12 *55:A2 23 
4 *15:12 *15:19 2.05071 
5 *15:19 *15:35 40.7766 
6 *15:35 *66:A1 23 
7 *15:35 *45:B 24.5691 
8 *15:19 *46:A 23 
*END

*D_NET *16 0.00236264
*CONN
*I *49:A2 I *D sky130_fd_sc_hd__o21ai_1
*I *61:A1 I *D sky130_fd_sc_hd__o21ai_1
*I *45:Y O *D sky130_fd_sc_hd__nand2_1
*CAP
1 *49:A2 0.000131792
2 *61:A1 0.00012793
3 *45:Y 0.000437059
4 *16:10 0.000696781
5 *49:A2 *49:A1 4.95081e-05
6 *49:A2 *49:B1 9.5877e-05
7 *49:A2 *19:10 2.38288e-05
8 *49:A2 *40:8 0
9 *61:A1 *60:A1 0
10 *61:A1 *62:A2 3.19613e-05
11 *61:A1 *69:CLK 0.000228426
12 *61:A1 *19:10 1.83564e-05
13 *61:A1 *40:19 6.02277e-06
14 *61:A1 *40:21 5.96521e-05
15 *16:10 *45:A 0
16 *16:10 *48:A1 0
17 *16:10 *69:CLK 0.000145505
18 *16:10 *73:A 1.02387e-05
19 *16:10 *19:10 6.01596e-05
20 *16:10 *33:14 9.64801e-06
21 *16:10 *36:10 8.28571e-05
22 *16:10 *40:19 3.74442e-05
23 *67:D *49:A2 0
24 *13:10 *49:A2 0
25 *13:10 *61:A1 0.000109595
*RES
1 *45:Y *16:10 48.5643 
2 *16:10 *61:A1 42.5571 
3 *16:10 *49:A2 41.0036 
*END

*D_NET *17 0.00416127
*CONN
*I *48:B1 I *D sky130_fd_sc_hd__a21oi_1
*I *60:B1 I *D sky130_fd_sc_hd__a21oi_1
*I *66:B1 I *D sky130_fd_sc_hd__a31o_1
*I *54:B1 I *D sky130_fd_sc_hd__a21o_1
*I *46:Y O *D sky130_fd_sc_hd__nor2_1
*CAP
1 *48:B1 0.000106785
2 *60:B1 0.000152826
3 *66:B1 0.000315796
4 *54:B1 9.96786e-05
5 *46:Y 0
6 *17:38 0.000496201
7 *17:10 0.000577719
8 *17:4 0.000398834
9 *48:B1 *45:A 0
10 *48:B1 *48:A1 5.3304e-05
11 *48:B1 *73:A 0.000173765
12 *48:B1 *19:10 3.7122e-06
13 *48:B1 *37:45 0
14 *54:B1 *65:B 0
15 *54:B1 *65:D 2.4754e-05
16 *54:B1 *66:A2 0
17 *54:B1 *18:18 0.000137651
18 *54:B1 *32:10 9.58714e-05
19 *60:B1 *61:B1 3.22879e-05
20 *60:B1 *62:A2 1.98161e-05
21 *60:B1 *69:CLK 6.7177e-06
22 *60:B1 *72:A 0.000215724
23 *60:B1 *73:A 0.000136746
24 *60:B1 *18:30 0
25 *66:B1 *65:B 0.000115687
26 *66:B1 *66:A2 7.44354e-05
27 *66:B1 *33:14 7.43025e-06
28 *66:B1 *43:29 0
29 *66:B1 *43:42 0
30 *17:10 *65:B 3.34756e-05
31 *17:10 *65:D 1.33535e-05
32 *17:10 *18:24 0
33 *17:10 *24:8 4.78793e-05
34 *17:10 *30:12 7.63602e-05
35 *17:10 *37:45 0.000141052
36 *17:10 *43:42 0
37 *17:38 *48:A1 0
38 *17:38 *48:A2 4.56219e-05
39 *17:38 *65:B 1.32939e-05
40 *17:38 *65:D 1.02949e-05
41 *17:38 *72:A 0
42 *17:38 *18:24 7.37286e-05
43 *17:38 *37:45 0.000379143
44 *45:B *66:B1 2.91639e-05
45 *13:10 *17:38 0
46 *14:8 *54:B1 3.70553e-06
47 *14:8 *66:B1 4.2062e-05
48 *15:35 *66:B1 6.39489e-06
*RES
1 *46:Y *17:4 23 
2 *17:4 *17:10 19.1843 
3 *17:10 *54:B1 40.5479 
4 *17:10 *66:B1 45.4157 
5 *17:4 *17:38 21.3386 
6 *17:38 *60:B1 42.7643 
7 *17:38 *48:B1 40.8793 
*END

*D_NET *18 0.00300018
*CONN
*I *54:A2 I *D sky130_fd_sc_hd__a21o_1
*I *48:A2 I *D sky130_fd_sc_hd__a21oi_1
*I *60:A2 I *D sky130_fd_sc_hd__a21oi_1
*I *47:Y O *D sky130_fd_sc_hd__nor2_1
*CAP
1 *54:A2 2.77218e-05
2 *48:A2 0.000130692
3 *60:A2 0
4 *47:Y 0.000280267
5 *18:30 0.000164092
6 *18:24 0.00045757
7 *18:18 0.000470776
8 *48:A2 *65:B 0
9 *48:A2 *33:14 5.27215e-06
10 *54:A2 *54:A1 2.64616e-05
11 *54:A2 *65:D 5.3304e-05
12 *18:18 *47:A 6.26126e-05
13 *18:18 *64:A1 5.36617e-05
14 *18:18 *65:B 8.04476e-05
15 *18:18 *65:D 0.000181925
16 *18:18 *31:12 5.51729e-05
17 *18:24 *65:B 0.000200978
18 *18:24 *24:8 0
19 *18:30 *26:21 1.14452e-05
20 *18:30 *30:23 8.50403e-05
21 *18:30 *37:45 0.000115013
22 *18:30 *41:87 0.000153614
23 *54:B1 *18:18 0.000137651
24 *60:B1 *18:30 0
25 *14:8 *18:18 1.99429e-05
26 *15:35 *18:18 2.31209e-05
27 *15:35 *18:24 8.4047e-05
28 *17:10 *18:24 0
29 *17:38 *48:A2 4.56219e-05
30 *17:38 *18:24 7.37286e-05
*RES
1 *47:Y *18:18 45.7679 
2 *18:18 *18:24 18.7286 
3 *18:24 *18:30 34.7229 
4 *18:30 *60:A2 23 
5 *18:24 *48:A2 25.7757 
6 *18:18 *54:A2 38.6214 
*END

*D_NET *19 0.000898357
*CONN
*I *49:B1 I *D sky130_fd_sc_hd__o21ai_1
*I *48:Y O *D sky130_fd_sc_hd__a21oi_1
*CAP
1 *49:B1 4.19943e-05
2 *48:Y 0.000178918
3 *19:10 0.000220913
4 *49:B1 *49:A1 5.50106e-05
5 *19:10 *48:A1 3.55825e-05
6 *19:10 *34:8 0
7 *19:10 *40:19 0.000142808
8 *48:B1 *19:10 3.7122e-06
9 *49:A2 *49:B1 9.5877e-05
10 *49:A2 *19:10 2.38288e-05
11 *61:A1 *19:10 1.83564e-05
12 *67:D *19:10 2.11965e-05
13 *13:10 *49:B1 0
14 *16:10 *19:10 6.01596e-05
*RES
1 *48:Y *19:10 42.4329 
2 *19:10 *49:B1 39.0979 
*END

*D_NET *20 0.000717598
*CONN
*I *52:B I *D sky130_fd_sc_hd__nand2_1
*I *51:B I *D sky130_fd_sc_hd__or2_1
*I *50:X O *D sky130_fd_sc_hd__xor2_1
*CAP
1 *52:B 0
2 *51:B 0
3 *50:X 9.95191e-05
4 *20:16 8.78844e-05
5 *20:10 0.000187404
6 *20:10 *50:A 5.29672e-05
7 *20:10 *53:B 5.74265e-05
8 *20:10 *58:B 0
9 *20:10 *23:10 5.50049e-05
10 *20:10 *41:14 2.47815e-05
11 *20:10 *41:23 9.88574e-06
12 *20:16 *52:A 8.76191e-05
13 *20:16 *21:12 5.51058e-05
*RES
1 *50:X *20:10 26.3971 
2 *20:10 *20:16 32.2579 
3 *20:16 *51:B 23 
4 *20:10 *52:B 23 
*END

*D_NET *21 0.00126889
*CONN
*I *59:A I *D sky130_fd_sc_hd__xnor2_1
*I *53:A I *D sky130_fd_sc_hd__nand2_1
*I *51:X O *D sky130_fd_sc_hd__or2_1
*CAP
1 *59:A 9.28442e-05
2 *53:A 0
3 *51:X 0
4 *21:12 0.000253688
5 *21:4 0.000346532
6 *59:A *62:A2 0
7 *59:A *41:23 1.56665e-05
8 *59:A *41:42 7.44257e-05
9 *59:A *42:24 0.000180218
10 *21:12 *62:A2 0
11 *21:12 *23:10 0
12 *21:12 *39:14 0
13 *21:12 *39:31 0
14 *21:12 *41:14 0.000128023
15 *21:12 *41:23 0.00012239
16 *21:12 *42:51 0
17 *20:16 *21:12 5.51058e-05
*RES
1 *51:X *21:4 23 
2 *21:4 *21:12 36.09 
3 *21:12 *53:A 23 
4 *21:4 *59:A 25.5271 
*END

*D_NET *22 0.000231994
*CONN
*I *53:B I *D sky130_fd_sc_hd__nand2_1
*I *52:Y O *D sky130_fd_sc_hd__nand2_1
*CAP
1 *53:B 3.71937e-05
2 *52:Y 3.71937e-05
3 *53:B *50:A 0.00010018
4 *53:B *41:23 0
5 *20:10 *53:B 5.74265e-05
*RES
1 *52:Y *53:B 47.595 
*END

*D_NET *23 0.00119967
*CONN
*I *55:A3 I *D sky130_fd_sc_hd__a31o_1
*I *53:Y O *D sky130_fd_sc_hd__nand2_1
*CAP
1 *55:A3 0
2 *53:Y 0.000367269
3 *23:10 0.000367269
4 *23:10 *50:A 9.24795e-06
5 *23:10 *63:A_N 0
6 *23:10 *30:12 7.02841e-05
7 *23:10 *39:10 0
8 *23:10 *39:31 0
9 *23:10 *41:14 0.000118581
10 *23:10 *42:51 0
11 *12:8 *23:10 0.000200565
12 *15:10 *23:10 1.14452e-05
13 *20:10 *23:10 5.50049e-05
14 *21:12 *23:10 0
*RES
1 *53:Y *23:10 47.5907 
2 *23:10 *55:A3 38 
*END

*D_NET *24 0.000545479
*CONN
*I *55:B1 I *D sky130_fd_sc_hd__a31o_1
*I *54:X O *D sky130_fd_sc_hd__a21o_1
*CAP
1 *55:B1 2.24725e-05
2 *54:X 9.28834e-05
3 *24:8 0.000115356
4 *55:B1 *37:45 0.000141954
5 *24:8 *30:12 0
6 *15:19 *55:B1 0.00010018
7 *15:35 *55:B1 2.4754e-05
8 *15:35 *24:8 0
9 *17:10 *24:8 4.78793e-05
10 *18:24 *24:8 0
*RES
1 *54:X *24:8 39.9057 
2 *24:8 *55:B1 39.5743 
*END

*D_NET *25 0.000499659
*CONN
*I *58:A I *D sky130_fd_sc_hd__nand2_1
*I *56:X O *D sky130_fd_sc_hd__a21o_1
*CAP
1 *58:A 0
2 *56:X 0.000149649
3 *25:10 0.000149649
4 *25:10 *58:B 0
5 *25:10 *40:29 0.00010018
6 *25:10 *42:24 0.00010018
*RES
1 *56:X *25:10 27.1014 
2 *25:10 *58:A 23 
*END

*D_NET *26 0.00112912
*CONN
*I *62:B1 I *D sky130_fd_sc_hd__o31ai_1
*I *58:B I *D sky130_fd_sc_hd__nand2_1
*I *57:Y O *D sky130_fd_sc_hd__nand3_1
*CAP
1 *62:B1 0
2 *58:B 8.20439e-05
3 *57:Y 0
4 *26:21 0.0002196
5 *26:4 0.000301644
6 *58:B *50:A 1.22822e-05
7 *58:B *57:A 5.90675e-06
8 *58:B *57:B 1.32314e-05
9 *58:B *40:29 5.70419e-05
10 *58:B *42:24 1.7009e-05
11 *26:21 *57:B 9.26005e-05
12 *26:21 *27:8 0
13 *26:21 *28:10 0
14 *26:21 *41:36 0.000111852
15 *26:21 *41:60 0.000118174
16 *26:21 *41:87 8.62876e-05
17 *18:30 *26:21 1.14452e-05
18 *20:10 *58:B 0
19 *25:10 *58:B 0
*RES
1 *57:Y *26:4 23 
2 *26:4 *58:B 25.5686 
3 *26:4 *26:21 35.075 
4 *26:21 *62:B1 23 
*END

*D_NET *27 0.00038507
*CONN
*I *59:B I *D sky130_fd_sc_hd__xnor2_1
*I *58:Y O *D sky130_fd_sc_hd__nand2_1
*CAP
1 *59:B 1.80505e-05
2 *58:Y 0.000132295
3 *27:8 0.000150345
4 *59:B *41:42 5.50049e-05
5 *59:B *42:24 2.93747e-05
6 *27:8 *40:23 0
7 *27:8 *40:29 0
8 *26:21 *27:8 0
*RES
1 *58:Y *27:8 40.2579 
2 *27:8 *59:B 38.6214 
*END

*D_NET *28 0.000303773
*CONN
*I *61:A2 I *D sky130_fd_sc_hd__o21ai_1
*I *59:Y O *D sky130_fd_sc_hd__xnor2_1
*CAP
1 *61:A2 0
2 *59:Y 8.53388e-05
3 *28:10 8.53388e-05
4 *28:10 *62:A2 3.2915e-05
5 *28:10 *40:23 0
6 *28:10 *41:42 0.00010018
7 *26:21 *28:10 0
*RES
1 *59:Y *28:10 40.2993 
2 *28:10 *61:A2 38 
*END

*D_NET *29 0.00016143
*CONN
*I *61:B1 I *D sky130_fd_sc_hd__o21ai_1
*I *60:Y O *D sky130_fd_sc_hd__a21oi_1
*CAP
1 *61:B1 2.5556e-05
2 *60:Y 2.5556e-05
3 *61:B1 *60:A1 4.00259e-06
4 *61:B1 *62:A2 7.4028e-05
5 *60:B1 *61:B1 3.22879e-05
*RES
1 *60:Y *61:B1 47.1186 
*END

*D_NET *30 0.00246132
*CONN
*I *65:C I *D sky130_fd_sc_hd__nand4_1
*I *64:A2 I *D sky130_fd_sc_hd__a31o_1
*I *62:Y O *D sky130_fd_sc_hd__o31ai_1
*CAP
1 *65:C 0
2 *64:A2 0
3 *62:Y 0
4 *30:23 0.000135857
5 *30:12 0.000385629
6 *30:4 0.000521486
7 *30:12 *72:A 0.0002246
8 *30:12 *37:14 1.34354e-05
9 *30:12 *37:45 0
10 *30:12 *39:14 0.000123924
11 *30:12 *39:20 0
12 *30:12 *39:27 2.18506e-05
13 *30:12 *42:51 6.88885e-05
14 *30:23 *41:87 0.000392717
15 *15:10 *30:12 0.000170604
16 *15:35 *30:12 7.26024e-05
17 *15:35 *30:23 9.80465e-05
18 *17:10 *30:12 7.63602e-05
19 *18:30 *30:23 8.50403e-05
20 *23:10 *30:12 7.02841e-05
21 *24:8 *30:12 0
*RES
1 *62:Y *30:4 23 
2 *30:4 *30:12 40.1086 
3 *30:12 *64:A2 23 
4 *30:4 *30:23 35.075 
5 *30:23 *65:C 23 
*END

*D_NET *31 0.00204087
*CONN
*I *65:D I *D sky130_fd_sc_hd__nand4_1
*I *64:A3 I *D sky130_fd_sc_hd__a31o_1
*I *63:Y O *D sky130_fd_sc_hd__nand2b_1
*CAP
1 *65:D 0.000187814
2 *64:A3 0
3 *63:Y 0.000245337
4 *31:12 0.000433152
5 *65:D *54:A1 1.5769e-05
6 *65:D *65:B 0.000156995
7 *65:D *66:A2 0
8 *65:D *37:45 0
9 *31:12 *47:A 2.32004e-05
10 *31:12 *47:B 7.42621e-05
11 *31:12 *64:A1 9.84851e-05
12 *31:12 *37:8 8.1796e-05
13 *31:12 *37:45 5.27215e-06
14 *31:12 *38:8 4.37033e-05
15 *54:A2 *65:D 5.3304e-05
16 *54:B1 *65:D 2.4754e-05
17 *14:8 *31:12 0
18 *15:10 *31:12 0.000336279
19 *17:10 *65:D 1.33535e-05
20 *17:38 *65:D 1.02949e-05
21 *18:18 *65:D 0.000181925
22 *18:18 *31:12 5.51729e-05
*RES
1 *63:Y *31:12 32.0107 
2 *31:12 *64:A3 23 
3 *31:12 *65:D 27.93 
*END

*D_NET *32 0.000812843
*CONN
*I *66:A2 I *D sky130_fd_sc_hd__a31o_1
*I *64:X O *D sky130_fd_sc_hd__a31o_1
*CAP
1 *66:A2 6.41996e-05
2 *64:X 0.000137831
3 *32:10 0.00020203
4 *66:A2 *33:14 2.93845e-05
5 *32:10 *65:B 0.000145049
6 *32:10 *33:14 2.96051e-05
7 *54:B1 *66:A2 0
8 *54:B1 *32:10 9.58714e-05
9 *65:D *66:A2 0
10 *66:B1 *66:A2 7.44354e-05
11 *14:8 *66:A2 1.24376e-05
12 *14:8 *32:10 2.19998e-05
13 *15:35 *32:10 0
*RES
1 *64:X *32:10 41.0036 
2 *32:10 *66:A2 39.5743 
*END

*D_NET *33 0.000870096
*CONN
*I *66:A3 I *D sky130_fd_sc_hd__a31o_1
*I *65:Y O *D sky130_fd_sc_hd__nand4_1
*CAP
1 *66:A3 0
2 *65:Y 0.000307934
3 *33:14 0.000307934
4 *33:14 *54:A1 4.93341e-05
5 *33:14 *65:B 1.40143e-05
6 *45:B *33:14 7.24977e-05
7 *48:A2 *33:14 5.27215e-06
8 *66:A2 *33:14 2.93845e-05
9 *66:B1 *33:14 7.43025e-06
10 *15:35 *33:14 3.70419e-05
11 *16:10 *33:14 9.64801e-06
12 *32:10 *33:14 2.96051e-05
*RES
1 *65:Y *33:14 44.9807 
2 *33:14 *66:A3 38 
*END

*D_NET *34 0.00240562
*CONN
*I *73:A I *D sky130_fd_sc_hd__clkbuf_16
*I *72:A I *D sky130_fd_sc_hd__clkbuf_16
*I *71:X O *D sky130_fd_sc_hd__clkbuf_16
*CAP
1 *73:A 0.000147407
2 *72:A 0.000251779
3 *71:X 3.18175e-05
4 *34:8 0.000431003
5 *72:A *60:A1 9.4713e-05
6 *72:A *62:A2 4.45594e-05
7 *72:A *69:CLK 5.6652e-05
8 *72:A *37:45 0
9 *72:A *39:27 5.50049e-05
10 *72:A *41:87 0
11 *72:A *42:51 6.9805e-05
12 *73:A *45:A 0
13 *73:A *69:CLK 0.000211553
14 *73:A *36:10 0.000134896
15 *48:B1 *73:A 0.000173765
16 *60:B1 *72:A 0.000215724
17 *60:B1 *73:A 0.000136746
18 *13:10 *72:A 9.58714e-05
19 *13:10 *34:8 1.94812e-05
20 *16:10 *73:A 1.02387e-05
21 *17:38 *72:A 0
22 *19:10 *34:8 0
23 *30:12 *72:A 0.0002246
*RES
1 *71:X *34:8 38.6214 
2 *34:8 *72:A 45.8921 
3 *34:8 *73:A 44.1314 
*END

*D_NET *35 0.0013234
*CONN
*I *70:CLK I *D sky130_fd_sc_hd__dfxtp_1
*I *68:CLK I *D sky130_fd_sc_hd__dfxtp_1
*I *72:X O *D sky130_fd_sc_hd__clkbuf_16
*CAP
1 *70:CLK 0.000395217
2 *68:CLK 9.22717e-05
3 *72:X 0
4 *35:6 0.000487489
5 *68:CLK *39:10 0.00012189
6 *70:CLK *63:A_N 9.92034e-05
7 *70:CLK *37:14 0
8 *70:CLK *39:10 4.77164e-06
9 *70:CLK *43:42 0
10 *74:A *70:CLK 5.39028e-05
11 *75:A *70:CLK 6.86591e-05
12 *15:10 *70:CLK 0
*RES
1 *72:X *35:6 38 
2 *35:6 *68:CLK 40.9621 
3 *35:6 *70:CLK 46.2443 
*END

*D_NET *36 0.00200506
*CONN
*I *67:CLK I *D sky130_fd_sc_hd__dfxtp_1
*I *69:CLK I *D sky130_fd_sc_hd__dfxtp_1
*I *73:X O *D sky130_fd_sc_hd__clkbuf_16
*CAP
1 *67:CLK 0
2 *69:CLK 0.000185035
3 *73:X 0.000301445
4 *36:10 0.000486479
5 *69:CLK *40:21 0
6 *36:10 *48:A1 5.84961e-05
7 *36:10 *40:8 0.000107001
8 *60:B1 *69:CLK 6.7177e-06
9 *61:A1 *69:CLK 0.000228426
10 *72:A *69:CLK 5.6652e-05
11 *73:A *69:CLK 0.000211553
12 *73:A *36:10 0.000134896
13 *16:10 *69:CLK 0.000145505
14 *16:10 *36:10 8.28571e-05
*RES
1 *73:X *36:10 46.2443 
2 *36:10 *69:CLK 44.5457 
3 *36:10 *67:CLK 38 
*END

*D_NET *37 0.00355606
*CONN
*I *45:A I *D sky130_fd_sc_hd__nand2_1
*I *65:A I *D sky130_fd_sc_hd__nand4_1
*I *55:A1 I *D sky130_fd_sc_hd__a31o_1
*I *64:A1 I *D sky130_fd_sc_hd__a31o_1
*I *47:A I *D sky130_fd_sc_hd__nor2_1
*I *74:X O *D sky130_fd_sc_hd__buf_1
*CAP
1 *45:A 0.000168499
2 *65:A 0
3 *55:A1 0
4 *64:A1 2.16649e-05
5 *47:A 3.29426e-05
6 *74:X 0.000156477
7 *37:45 0.000513527
8 *37:32 0.000420015
9 *37:14 0.000162504
10 *37:8 0.000339361
11 *45:A *41:87 5.1647e-05
12 *37:8 *38:8 0
13 *37:8 *39:14 0
14 *37:8 *42:51 0.000201306
15 *37:32 *42:51 2.44913e-05
16 *37:45 *41:87 0.000119154
17 *48:B1 *45:A 0
18 *48:B1 *37:45 0
19 *55:B1 *37:45 0.000141954
20 *65:D *37:45 0
21 *70:CLK *37:14 0
22 *72:A *37:45 0
23 *73:A *45:A 0
24 *15:10 *37:8 1.91431e-05
25 *15:10 *37:14 7.49159e-05
26 *15:10 *37:32 8.97286e-06
27 *15:19 *37:32 5.3304e-05
28 *15:19 *37:45 1.56762e-05
29 *15:35 *45:A 0
30 *15:35 *37:45 5.68311e-05
31 *16:10 *45:A 0
32 *17:10 *37:45 0.000141052
33 *17:38 *37:45 0.000379143
34 *18:18 *47:A 6.26126e-05
35 *18:18 *64:A1 5.36617e-05
36 *18:30 *37:45 0.000115013
37 *30:12 *37:14 1.34354e-05
38 *30:12 *37:45 0
39 *31:12 *47:A 2.32004e-05
40 *31:12 *64:A1 9.84851e-05
41 *31:12 *37:8 8.1796e-05
42 *31:12 *37:45 5.27215e-06
*RES
1 *74:X *37:8 27.4536 
2 *37:8 *37:14 32.61 
3 *37:14 *47:A 24.1186 
4 *37:14 *64:A1 24.0979 
5 *37:8 *37:32 1.57429 
6 *37:32 *55:A1 23 
7 *37:32 *37:45 24.57 
8 *37:45 *65:A 38 
9 *37:45 *45:A 40.9621 
*END

*D_NET *38 0.000394467
*CONN
*I *47:B I *D sky130_fd_sc_hd__nor2_1
*I *44:A I *D sky130_fd_sc_hd__inv_2
*I *75:X O *D sky130_fd_sc_hd__buf_1
*CAP
1 *47:B 4.86946e-05
2 *44:A 0
3 *75:X 8.95562e-05
4 *38:8 0.000138251
5 *14:8 *47:B 0
6 *31:12 *47:B 7.42621e-05
7 *31:12 *38:8 4.37033e-05
8 *37:8 *38:8 0
*RES
1 *75:X *38:8 24.9471 
2 *38:8 *44:A 23 
3 *38:8 *47:B 24.5743 
*END

*D_NET *39 0.00314975
*CONN
*I *63:A_N I *D sky130_fd_sc_hd__nand2b_1
*I *62:A1 I *D sky130_fd_sc_hd__o31ai_1
*I *51:A I *D sky130_fd_sc_hd__or2_1
*I *52:A I *D sky130_fd_sc_hd__nand2_1
*I *46:B I *D sky130_fd_sc_hd__nor2_1
*I *76:X O *D sky130_fd_sc_hd__buf_1
*CAP
1 *63:A_N 8.9162e-05
2 *62:A1 0
3 *51:A 0
4 *52:A 6.13111e-05
5 *46:B 0
6 *76:X 0.000259498
7 *39:31 0.000199204
8 *39:27 0.000164059
9 *39:20 0.000119184
10 *39:14 0.000473237
11 *39:10 0.000676547
12 *52:A *57:B 0
13 *52:A *57:C 5.18988e-05
14 *39:14 *42:51 6.82395e-05
15 *39:20 *42:51 0.000139081
16 *39:27 *42:51 8.52481e-05
17 *39:31 *57:C 4.21594e-06
18 *39:31 *42:37 8.61522e-05
19 *39:31 *42:51 6.00136e-06
20 *68:CLK *39:10 0.00012189
21 *68:D *39:14 0
22 *70:CLK *63:A_N 9.92034e-05
23 *70:CLK *39:10 4.77164e-06
24 *72:A *39:27 5.50049e-05
25 *76:A *39:10 0
26 *1:11 *39:20 0.000152446
27 *12:8 *63:A_N 0
28 *12:8 *39:10 0
29 *15:35 *39:20 0
30 *20:16 *52:A 8.76191e-05
31 *21:12 *39:14 0
32 *21:12 *39:31 0
33 *23:10 *63:A_N 0
34 *23:10 *39:10 0
35 *23:10 *39:31 0
36 *30:12 *39:14 0.000123924
37 *30:12 *39:20 0
38 *30:12 *39:27 2.18506e-05
39 *37:8 *39:14 0
*RES
1 *76:X *39:10 44.1729 
2 *39:10 *39:14 21.815 
3 *39:14 *39:20 32.61 
4 *39:20 *46:B 23 
5 *39:14 *39:27 1.09786 
6 *39:27 *39:31 18.6664 
7 *39:31 *52:A 40.2579 
8 *39:31 *51:A 38 
9 *39:27 *62:A1 23 
10 *39:10 *63:A_N 40.61 
*END

*D_NET *40 0.00592188
*CONN
*I *77:A I *D sky130_fd_sc_hd__buf_1
*I *49:A1 I *D sky130_fd_sc_hd__o21ai_1
*I *62:A2 I *D sky130_fd_sc_hd__o31ai_1
*I *56:A1 I *D sky130_fd_sc_hd__a21o_1
*I *57:A I *D sky130_fd_sc_hd__nand3_1
*I *50:A I *D sky130_fd_sc_hd__xor2_1
*I *48:A1 I *D sky130_fd_sc_hd__a21oi_1
*I *67:Q O *D sky130_fd_sc_hd__dfxtp_1
*CAP
1 *77:A 4.94106e-05
2 *49:A1 7.68687e-05
3 *62:A2 0.000284279
4 *56:A1 0
5 *57:A 2.14194e-05
6 *50:A 0.000350093
7 *48:A1 0.000173429
8 *67:Q 2.0995e-05
9 *40:29 0.000776145
10 *40:23 0.000551816
11 *40:21 0.000584799
12 *40:19 0.000344771
13 *40:8 0.000452341
14 *40:6 0.000234753
15 *50:A *57:B 3.22879e-05
16 *50:A *41:14 0.00010018
17 *50:A *41:23 0
18 *62:A2 *60:A1 0.00016778
19 *62:A2 *62:A3 5.3304e-05
20 *62:A2 *41:42 0.000113314
21 *62:A2 *42:51 7.67422e-05
22 *40:23 *42:10 0
23 *40:29 *42:10 0
24 *40:29 *42:20 0
25 *40:29 *42:24 0
26 counter[2] *40:29 0
27 *48:B1 *48:A1 5.3304e-05
28 *49:A2 *49:A1 4.95081e-05
29 *49:A2 *40:8 0
30 *49:B1 *49:A1 5.50106e-05
31 *53:B *50:A 0.00010018
32 *58:B *50:A 1.22822e-05
33 *58:B *57:A 5.90675e-06
34 *58:B *40:29 5.70419e-05
35 *59:A *62:A2 0
36 *60:B1 *62:A2 1.98161e-05
37 *61:A1 *62:A2 3.19613e-05
38 *61:A1 *40:19 6.02277e-06
39 *61:A1 *40:21 5.96521e-05
40 *61:B1 *62:A2 7.4028e-05
41 *67:D *48:A1 0.000102732
42 *67:D *40:8 8.43466e-05
43 *69:CLK *40:21 0
44 *72:A *62:A2 4.45594e-05
45 *11:8 *40:19 9.21378e-05
46 *13:10 *62:A2 3.20198e-05
47 *16:10 *48:A1 0
48 *16:10 *40:19 3.74442e-05
49 *17:38 *48:A1 0
50 *19:10 *48:A1 3.55825e-05
51 *19:10 *40:19 0.000142808
52 *20:10 *50:A 5.29672e-05
53 *21:12 *62:A2 0
54 *23:10 *50:A 9.24795e-06
55 *25:10 *40:29 0.00010018
56 *27:8 *40:23 0
57 *27:8 *40:29 0
58 *28:10 *62:A2 3.2915e-05
59 *28:10 *40:23 0
60 *36:10 *48:A1 5.84961e-05
61 *36:10 *40:8 0.000107001
*RES
1 *67:Q *40:6 23.4971 
2 *40:6 *40:8 4.90929 
3 *40:8 *48:A1 26.9564 
4 *40:8 *40:19 18.6664 
5 *40:19 *40:21 3.66643 
6 *40:21 *40:23 2.25786 
7 *40:23 *40:29 23.8243 
8 *40:29 *50:A 32.1143 
9 *40:29 *57:A 23.4971 
10 *40:23 *56:A1 38 
11 *40:21 *62:A2 47.9325 
12 *40:19 *49:A1 40.0507 
13 *40:6 *77:A 24.1186 
*END

*D_NET *41 0.00613959
*CONN
*I *54:A1 I *D sky130_fd_sc_hd__a21o_1
*I *62:A3 I *D sky130_fd_sc_hd__o31ai_1
*I *78:A I *D sky130_fd_sc_hd__buf_1
*I *56:A2 I *D sky130_fd_sc_hd__a21o_1
*I *57:B I *D sky130_fd_sc_hd__nand3_1
*I *50:B I *D sky130_fd_sc_hd__xor2_1
*I *68:Q O *D sky130_fd_sc_hd__dfxtp_1
*CAP
1 *54:A1 6.6976e-05
2 *62:A3 3.26917e-05
3 *78:A 0.000203129
4 *56:A2 2.1727e-05
5 *57:B 7.99454e-05
6 *50:B 0
7 *68:Q 0
8 *41:87 0.000511948
9 *41:60 0.000503863
10 *41:42 0.000464457
11 *41:36 0.000311978
12 *41:23 0.00025923
13 *41:14 0.000195316
14 *41:4 0.000328423
15 *54:A1 *65:B 9.88574e-06
16 *56:A2 *56:B1 4.00259e-06
17 *56:A2 *42:20 0
18 *57:B *57:C 0.000120396
19 *57:B *42:24 0
20 *78:A *42:10 1.55671e-05
21 *78:A *42:20 0.000206278
22 *41:23 *42:24 5.3304e-05
23 *41:36 *57:C 2.46345e-05
24 *41:36 *42:37 8.94487e-05
25 *41:42 *42:20 4.75206e-05
26 *41:42 *42:24 0.000133986
27 *41:60 *42:37 0.000108951
28 *41:87 *42:37 4.92689e-05
29 *45:A *41:87 5.1647e-05
30 *50:A *57:B 3.22879e-05
31 *50:A *41:14 0.00010018
32 *50:A *41:23 0
33 *52:A *57:B 0
34 *53:B *41:23 0
35 *54:A2 *54:A1 2.64616e-05
36 *58:B *57:B 1.32314e-05
37 *59:A *41:23 1.56665e-05
38 *59:A *41:42 7.44257e-05
39 *59:B *41:42 5.50049e-05
40 *62:A2 *62:A3 5.3304e-05
41 *62:A2 *41:42 0.000113314
42 *65:D *54:A1 1.5769e-05
43 *72:A *41:87 0
44 *1:11 *41:87 0
45 *15:35 *41:87 0.000117799
46 *18:30 *41:87 0.000153614
47 *20:10 *41:14 2.47815e-05
48 *20:10 *41:23 9.88574e-06
49 *21:12 *41:14 0.000128023
50 *21:12 *41:23 0.00012239
51 *23:10 *41:14 0.000118581
52 *26:21 *57:B 9.26005e-05
53 *26:21 *41:36 0.000111852
54 *26:21 *41:60 0.000118174
55 *26:21 *41:87 8.62876e-05
56 *28:10 *41:42 0.00010018
57 *30:23 *41:87 0.000392717
58 *33:14 *54:A1 4.93341e-05
59 *37:45 *41:87 0.000119154
*RES
1 *68:Q *41:4 23 
2 *41:4 *41:14 35.4064 
3 *41:14 *50:B 23 
4 *41:4 *41:23 18.48 
5 *41:23 *57:B 40.5271 
6 *41:23 *41:36 1.55357 
7 *41:36 *41:42 22.7886 
8 *41:42 *56:A2 23.4971 
9 *41:42 *78:A 28.4064 
10 *41:36 *41:60 1.55357 
11 *41:60 *62:A3 38.6214 
12 *41:60 *41:87 40.6679 
13 *41:87 *54:A1 39.5743 
*END

*D_NET *42 0.00503706
*CONN
*I *79:A I *D sky130_fd_sc_hd__buf_1
*I *56:B1 I *D sky130_fd_sc_hd__a21o_1
*I *60:A1 I *D sky130_fd_sc_hd__a21oi_1
*I *63:B I *D sky130_fd_sc_hd__nand2b_1
*I *57:C I *D sky130_fd_sc_hd__nand3_1
*I *69:Q O *D sky130_fd_sc_hd__dfxtp_1
*CAP
1 *79:A 0
2 *56:B1 2.1727e-05
3 *60:A1 8.59611e-05
4 *63:B 0
5 *57:C 4.41223e-05
6 *69:Q 0.00021183
7 *42:51 0.000433828
8 *42:37 0.000599543
9 *42:24 0.000323432
10 *42:20 0.000423899
11 *42:12 0.000202616
12 *42:10 0.00021183
13 counter[1] *42:10 0
14 *52:A *57:C 5.18988e-05
15 *56:A2 *56:B1 4.00259e-06
16 *56:A2 *42:20 0
17 *57:B *57:C 0.000120396
18 *57:B *42:24 0
19 *58:B *42:24 1.7009e-05
20 *59:A *42:24 0.000180218
21 *59:B *42:24 2.93747e-05
22 *61:A1 *60:A1 0
23 *61:B1 *60:A1 4.00259e-06
24 *62:A2 *60:A1 0.00016778
25 *62:A2 *42:51 7.67422e-05
26 *72:A *60:A1 9.4713e-05
27 *72:A *42:51 6.9805e-05
28 *78:A *42:10 1.55671e-05
29 *78:A *42:20 0.000206278
30 *15:19 *42:51 9.45591e-05
31 *15:35 *42:51 5.50049e-05
32 *21:12 *42:51 0
33 *23:10 *42:51 0
34 *25:10 *42:24 0.00010018
35 *30:12 *42:51 6.88885e-05
36 *37:8 *42:51 0.000201306
37 *37:32 *42:51 2.44913e-05
38 *39:14 *42:51 6.82395e-05
39 *39:20 *42:51 0.000139081
40 *39:27 *42:51 8.52481e-05
41 *39:31 *57:C 4.21594e-06
42 *39:31 *42:37 8.61522e-05
43 *39:31 *42:51 6.00136e-06
44 *40:23 *42:10 0
45 *40:29 *42:10 0
46 *40:29 *42:20 0
47 *40:29 *42:24 0
48 *41:23 *42:24 5.3304e-05
49 *41:36 *57:C 2.46345e-05
50 *41:36 *42:37 8.94487e-05
51 *41:42 *42:20 4.75206e-05
52 *41:42 *42:24 0.000133986
53 *41:60 *42:37 0.000108951
54 *41:87 *42:37 4.92689e-05
*RES
1 *69:Q *42:10 41.8321 
2 *42:10 *42:12 15 
3 *42:12 *42:20 5.69643 
4 *42:20 *42:24 21.3386 
5 *42:24 *57:C 39.9057 
6 *42:24 *42:37 18.3143 
7 *42:37 *42:51 41.7968 
8 *42:51 *63:B 23 
9 *42:37 *60:A1 25.5479 
10 *42:20 *56:B1 23.4971 
11 *42:12 *79:A 23 
*END

*D_NET *43 0.00294654
*CONN
*I *64:B1 I *D sky130_fd_sc_hd__a31o_1
*I *80:A I *D sky130_fd_sc_hd__buf_1
*I *65:B I *D sky130_fd_sc_hd__nand4_1
*I *70:Q O *D sky130_fd_sc_hd__dfxtp_1
*CAP
1 *64:B1 0
2 *80:A 0.000219158
3 *65:B 0.000376477
4 *70:Q 0
5 *43:42 0.000272038
6 *43:29 0.000711881
7 *43:6 0.000597162
8 *48:A2 *65:B 0
9 *54:A1 *65:B 9.88574e-06
10 *54:B1 *65:B 0
11 *65:D *65:B 0.000156995
12 *66:B1 *65:B 0.000115687
13 *66:B1 *43:29 0
14 *66:B1 *43:42 0
15 *70:CLK *43:42 0
16 *14:8 *80:A 0
17 *14:8 *43:29 0
18 *17:10 *65:B 3.34756e-05
19 *17:10 *43:42 0
20 *17:38 *65:B 1.32939e-05
21 *18:18 *65:B 8.04476e-05
22 *18:24 *65:B 0.000200978
23 *32:10 *65:B 0.000145049
24 *33:14 *65:B 1.40143e-05
*RES
1 *70:Q *43:6 38 
2 *43:6 *65:B 48.1707 
3 *43:6 *43:29 20.2614 
4 *43:29 *80:A 27.4329 
5 *43:29 *43:42 35.7793 
6 *43:42 *64:B1 23 
*END
