*SPEF "ieee 1481-1999"
*DESIGN "counter_dut"
*DATE "11:18:22 Wednesday December 04, 2024"
*VENDOR "The OpenROAD Project"
*PROGRAM "OpenROAD"
*VERSION "edf00dff99f6c40d67a30c0e22a8191c5d2ed9d6"
*DESIGN_FLOW "NAME_SCOPE LOCAL" "PIN_CAP NONE"
*DIVIDER /
*DELIMITER :
*BUS_DELIMITER []
*T_UNIT 1 NS
*C_UNIT 1 PF
*R_UNIT 1 OHM
*L_UNIT 1 HENRY

*NAME_MAP
*1 clk
*2 counter[0]
*3 counter[1]
*4 counter[2]
*5 counter[3]
*6 enable
*7 reset
*8 up_down
*11 _00_
*12 _01_
*13 _02_
*14 _03_
*15 _04_
*16 _05_
*17 _06_
*18 _07_
*19 _08_
*20 _09_
*21 _10_
*22 _11_
*23 _12_
*24 _13_
*25 _14_
*26 _15_
*27 _16_
*28 _17_
*29 _18_
*30 _19_
*31 _20_
*32 _21_
*33 _22_
*34 clknet_0_clk
*35 clknet_1_0__leaf_clk
*36 clknet_1_1__leaf_clk
*37 net1
*38 net2
*39 net3
*40 net4
*41 net5
*42 net6
*43 net7
*44 _23_
*45 _24_
*46 _25_
*47 _26_
*48 _27_
*49 _28_
*50 _29_
*51 _30_
*52 _31_
*53 _32_
*54 _33_
*55 _34_
*56 _35_
*57 _36_
*58 _37_
*59 _38_
*60 _39_
*61 _40_
*62 _41_
*63 _42_
*64 _43_
*65 _44_
*66 _45_
*67 _46_
*68 _47_
*69 _48_
*70 _49_
*71 clkbuf_0_clk
*72 clkbuf_1_0__f_clk
*73 clkbuf_1_1__f_clk
*74 input1
*75 input2
*76 input3
*77 output4
*78 output5
*79 output6
*80 output7

*PORTS
clk I
counter[0] O
counter[1] O
counter[2] O
counter[3] O
enable I
reset I
up_down I

*D_NET *1 0.00147813
*CONN
*P clk I
*I *71:A I *D sky130_fd_sc_hd__clkbuf_16
*CAP
1 clk 0.000585325
2 *71:A 0.000585325
3 *71:A *54:A1 6.31497e-05
4 *71:A *74:A 5.63302e-05
5 *71:A *76:A 5.38666e-05
6 *71:A *30:12 0
7 *71:A *31:14 0.000134139
*RES
1 clk *71:A 6.99577 
*END

*D_NET *2 0.000278036
*CONN
*P counter[0] O
*I *77:X O *D sky130_fd_sc_hd__buf_1
*CAP
1 counter[0] 0.000106219
2 *77:X 0.000106219
3 counter[0] counter[1] 5.63302e-05
4 counter[0] *42:16 9.26907e-06
*RES
1 *77:X counter[0] 4.67197 
*END

*D_NET *3 0.000652184
*CONN
*P counter[1] O
*I *78:X O *D sky130_fd_sc_hd__buf_1
*CAP
1 counter[1] 0.000211195
2 *78:X 0.000211195
3 counter[1] counter[2] 5.3873e-05
4 counter[1] *77:A 0.000111059
5 counter[1] *78:A 0
6 counter[1] *42:16 8.53113e-06
7 counter[0] counter[1] 5.63302e-05
*RES
1 *78:X counter[1] 5.86677 
*END

*D_NET *4 0.00031849
*CONN
*P counter[2] O
*I *79:X O *D sky130_fd_sc_hd__buf_1
*CAP
1 counter[2] 0.000123629
2 *79:X 0.000123629
3 counter[2] *40:12 1.73593e-05
4 counter[1] counter[2] 5.3873e-05
*RES
1 *79:X counter[2] 4.92697 
*END

*D_NET *5 0.000287662
*CONN
*P counter[3] O
*I *80:X O *D sky130_fd_sc_hd__buf_1
*CAP
1 counter[3] 0.000113581
2 *80:X 0.000113581
3 counter[3] *75:A 5.38666e-05
4 counter[3] *80:A 6.63219e-06
*RES
1 *80:X counter[3] 4.67197 
*END

*D_NET *6 0.000404144
*CONN
*P enable I
*I *74:A I *D sky130_fd_sc_hd__buf_1
*CAP
1 enable 0.000147602
2 *74:A 0.000147602
3 *74:A *70:CLK 0
4 *74:A *75:A 5.26085e-05
5 *71:A *74:A 5.63302e-05
*RES
1 enable *74:A 5.43697 
*END

*D_NET *7 0.00041385
*CONN
*P reset I
*I *75:A I *D sky130_fd_sc_hd__buf_1
*CAP
1 reset 0.000130465
2 *75:A 0.000130465
3 *75:A *43:16 4.64459e-05
4 counter[3] *75:A 5.38666e-05
5 *74:A *75:A 5.26085e-05
*RES
1 reset *75:A 5.69197 
*END

*D_NET *8 0.000774291
*CONN
*P up_down I
*I *76:A I *D sky130_fd_sc_hd__buf_1
*CAP
1 up_down 0.000298144
2 *76:A 0.000298144
3 *76:A *51:A 0.000124137
4 *76:A *52:B 0
5 *71:A *76:A 5.38666e-05
*RES
1 up_down *76:A 8.49697 
*END

*D_NET *11 0.00134995
*CONN
*I *67:D I *D sky130_fd_sc_hd__dfxtp_1
*I *49:Y O *D sky130_fd_sc_hd__o21ai_1
*CAP
1 *67:D 0.000497726
2 *49:Y 0.000497726
3 *67:D *48:A1 7.9205e-06
4 *67:D *48:A2 1.83847e-05
5 *67:D *48:B1 1.03423e-05
6 *67:D *49:B1 4.99619e-05
7 *67:D *63:B 6.50844e-06
8 *67:D *67:CLK 0.000163113
9 *67:D *69:CLK 1.01661e-05
10 *67:D *69:D 8.81025e-05
11 *67:D *78:A 0
12 *67:D *42:20 0
*RES
1 *49:Y *67:D 17.6287 
*END

*D_NET *12 0.000456459
*CONN
*I *68:D I *D sky130_fd_sc_hd__dfxtp_1
*I *55:X O *D sky130_fd_sc_hd__a31o_1
*CAP
1 *68:D 7.27064e-05
2 *55:X 7.27064e-05
3 *68:D *51:A 0.000122548
4 *68:D *51:B 5.25348e-05
5 *68:D *52:B 2.97004e-06
6 *68:D *68:CLK 0.000124259
7 *68:D *21:8 8.73389e-06
8 *68:D *39:10 0
*RES
1 *55:X *68:D 9.51375 
*END

*D_NET *13 0.000550042
*CONN
*I *69:D I *D sky130_fd_sc_hd__dfxtp_1
*I *61:Y O *D sky130_fd_sc_hd__o21ai_1
*CAP
1 *69:D 0.000132064
2 *61:Y 0.000132064
3 *69:D *48:A2 0
4 *69:D *61:B1 0
5 *69:D *67:CLK 2.92496e-05
6 *69:D *69:CLK 0.000100162
7 *69:D *36:8 6.83991e-05
8 *67:D *69:D 8.81025e-05
*RES
1 *61:Y *69:D 10.3988 
*END

*D_NET *14 0.000635343
*CONN
*I *70:D I *D sky130_fd_sc_hd__dfxtp_1
*I *66:X O *D sky130_fd_sc_hd__a31o_1
*CAP
1 *70:D 0.00014362
2 *66:X 0.00014362
3 *70:D *45:A 0.000113551
4 *70:D *45:B 0.000120888
5 *70:D *49:A1 0
6 *70:D *70:CLK 0.000113663
*RES
1 *66:X *70:D 11.1038 
*END

*D_NET *15 0.00347597
*CONN
*I *46:A I *D sky130_fd_sc_hd__nor2_1
*I *66:A1 I *D sky130_fd_sc_hd__a31o_1
*I *45:B I *D sky130_fd_sc_hd__nand2_1
*I *55:A2 I *D sky130_fd_sc_hd__a31o_1
*I *44:Y O *D sky130_fd_sc_hd__inv_2
*CAP
1 *46:A 0.000192318
2 *66:A1 1.23336e-05
3 *45:B 9.30081e-05
4 *55:A2 0.00027353
5 *44:Y 3.82646e-05
6 *15:36 0.000251021
7 *15:21 0.000296564
8 *15:6 0.000468982
9 *45:B *45:A 0.000146322
10 *45:B *48:B1 0
11 *45:B *61:A1 0
12 *45:B *31:14 7.06865e-05
13 *46:A *54:B1 0
14 *46:A *63:B 4.43871e-06
15 *46:A *66:B1 8.65905e-05
16 *46:A *17:8 0.000101822
17 *46:A *17:19 4.21314e-05
18 *46:A *17:32 0.000136124
19 *46:A *31:14 0
20 *46:A *40:57 2.42236e-05
21 *55:A2 *51:B 5.83121e-06
22 *55:A2 *55:A1 0
23 *55:A2 *55:A3 2.11084e-05
24 *55:A2 *55:B1 0
25 *55:A2 *68:CLK 8.35003e-05
26 *55:A2 *70:CLK 0.00019517
27 *55:A2 *20:12 0
28 *55:A2 *21:8 8.65961e-05
29 *55:A2 *37:30 0
30 *66:A1 *66:A2 2.31547e-05
31 *15:6 *37:8 4.65607e-05
32 *15:6 *43:16 6.97118e-05
33 *15:21 *54:B1 2.87722e-05
34 *15:21 *64:B1 1.60203e-05
35 *15:21 *66:A2 0.000122325
36 *15:21 *66:A3 0.000275399
37 *15:21 *37:8 4.7101e-05
38 *15:21 *37:17 0
39 *15:21 *43:16 2.75229e-05
40 *15:36 *54:B1 1.0124e-05
41 *15:36 *66:A2 5.78262e-05
42 *70:D *45:B 0.000120888
*RES
1 *44:Y *15:6 2.74 
2 *15:6 *55:A2 11.855 
3 *15:6 *15:21 4.59 
4 *15:21 *45:B 8.255 
5 *15:21 *15:36 1.155 
6 *15:36 *66:A1 1.96 
7 *15:36 *46:A 10.415 
*END

*D_NET *16 0.000903336
*CONN
*I *49:A2 I *D sky130_fd_sc_hd__o21ai_1
*I *61:A1 I *D sky130_fd_sc_hd__o21ai_1
*I *45:Y O *D sky130_fd_sc_hd__nand2_1
*CAP
1 *49:A2 0
2 *61:A1 0.000190891
3 *45:Y 0.000108322
4 *16:6 0.000299213
5 *61:A1 *45:A 0
6 *61:A1 *48:A1 4.40325e-06
7 *61:A1 *48:A2 0
8 *61:A1 *48:B1 0.000143968
9 *61:A1 *49:A1 7.27298e-06
10 *61:A1 *66:B1 4.82863e-05
11 *61:A1 *18:15 0
12 *16:6 *45:A 8.65905e-05
13 *16:6 *49:A1 1.4389e-05
14 *16:6 *66:B1 0
15 *45:B *61:A1 0
*RES
1 *45:Y *16:6 3.775 
2 *16:6 *61:A1 9.14 
3 *16:6 *49:A2 1.6 
*END

*D_NET *17 0.00311672
*CONN
*I *48:B1 I *D sky130_fd_sc_hd__a21oi_1
*I *66:B1 I *D sky130_fd_sc_hd__a31o_1
*I *54:B1 I *D sky130_fd_sc_hd__a21o_1
*I *60:B1 I *D sky130_fd_sc_hd__a21oi_1
*I *46:Y O *D sky130_fd_sc_hd__nor2_1
*CAP
1 *48:B1 6.94722e-05
2 *66:B1 3.86774e-05
3 *54:B1 0.000169927
4 *60:B1 0.000165637
5 *46:Y 1.65242e-05
6 *17:32 0.000145544
7 *17:19 0.000223967
8 *17:8 0.000198807
9 *48:B1 *48:A1 4.82919e-05
10 *48:B1 *49:A1 4.66108e-05
11 *48:B1 *49:B1 2.11084e-05
12 *48:B1 *40:57 0.000142294
13 *54:B1 *18:8 7.05779e-05
14 *54:B1 *18:15 0.000349587
15 *54:B1 *37:8 0
16 *60:B1 *60:A2 0.000298737
17 *60:B1 *63:B 0
18 *60:B1 *72:A 2.68664e-05
19 *60:B1 *18:15 0.000158072
20 *66:B1 *49:A1 0
21 *17:8 *40:57 0.000100156
22 *17:19 *40:57 4.9968e-05
23 *17:32 *40:57 0.000167735
24 *45:B *48:B1 0
25 *46:A *54:B1 0
26 *46:A *66:B1 8.65905e-05
27 *46:A *17:8 0.000101822
28 *46:A *17:19 4.21314e-05
29 *46:A *17:32 0.000136124
30 *61:A1 *48:B1 0.000143968
31 *61:A1 *66:B1 4.82863e-05
32 *67:D *48:B1 1.03423e-05
33 *15:21 *54:B1 2.87722e-05
34 *15:36 *54:B1 1.0124e-05
35 *16:6 *66:B1 0
*RES
1 *46:Y *17:8 4.725 
2 *17:8 *60:B1 7.845 
3 *17:8 *17:19 0.615 
4 *17:19 *54:B1 8.205 
5 *17:19 *17:32 1.89 
6 *17:32 *66:B1 4.74 
7 *17:32 *48:B1 6.285 
*END

*D_NET *18 0.00283387
*CONN
*I *60:A2 I *D sky130_fd_sc_hd__a21oi_1
*I *48:A2 I *D sky130_fd_sc_hd__a21oi_1
*I *54:A2 I *D sky130_fd_sc_hd__a21o_1
*I *47:Y O *D sky130_fd_sc_hd__nor2_1
*CAP
1 *60:A2 0.000136856
2 *48:A2 0.000122985
3 *54:A2 0
4 *47:Y 0.000146092
5 *18:15 0.000451782
6 *18:8 0.000338033
7 *48:A2 *48:A1 5.83121e-06
8 *48:A2 *61:A2 0.000146322
9 *48:A2 *61:B1 0.000124902
10 *48:A2 *67:CLK 2.03321e-05
11 *48:A2 *69:CLK 4.58014e-05
12 *48:A2 *73:A 5.1877e-05
13 *48:A2 *40:57 7.62996e-05
14 *60:A2 *61:B1 0.000105654
15 *60:A2 *63:B 0
16 *60:A2 *42:16 2.75229e-05
17 *18:8 *37:8 1.33293e-05
18 *18:8 *37:17 0.000124895
19 *18:15 *72:A 0
20 *18:15 *39:50 0
21 *54:B1 *18:8 7.05779e-05
22 *54:B1 *18:15 0.000349587
23 *60:B1 *60:A2 0.000298737
24 *60:B1 *18:15 0.000158072
25 *61:A1 *48:A2 0
26 *61:A1 *18:15 0
27 *67:D *48:A2 1.83847e-05
28 *69:D *48:A2 0
*RES
1 *47:Y *18:8 4.825 
2 *18:8 *54:A2 1.6 
3 *18:8 *18:15 4.59 
4 *18:15 *48:A2 10.235 
5 *18:15 *60:A2 5.5 
*END

*D_NET *19 0.000128449
*CONN
*I *49:B1 I *D sky130_fd_sc_hd__o21ai_1
*I *48:Y O *D sky130_fd_sc_hd__a21oi_1
*CAP
1 *49:B1 2.86893e-05
2 *48:Y 2.86893e-05
3 *48:B1 *49:B1 2.11084e-05
4 *67:D *49:B1 4.99619e-05
*RES
1 *48:Y *49:B1 4.01 
*END

*D_NET *20 0.00144435
*CONN
*I *51:B I *D sky130_fd_sc_hd__or2_1
*I *52:B I *D sky130_fd_sc_hd__nand2_1
*I *50:X O *D sky130_fd_sc_hd__xor2_1
*CAP
1 *51:B 0.000109636
2 *52:B 0.000195733
3 *50:X 0.000198681
4 *20:12 0.000504049
5 *51:B *68:CLK 6.63141e-05
6 *51:B *21:8 2.8185e-05
7 *51:B *39:23 0
8 *51:B *41:14 0
9 *52:B *51:A 0
10 *52:B *39:10 0.000163204
11 *52:B *39:23 0
12 *20:12 *50:B 1.03323e-05
13 *20:12 *53:B 6.77062e-05
14 *20:12 *55:A3 2.17886e-05
15 *20:12 *39:10 0
16 *20:12 *41:14 1.7386e-05
17 *55:A2 *51:B 5.83121e-06
18 *55:A2 *20:12 0
19 *68:D *51:B 5.25348e-05
20 *68:D *52:B 2.97004e-06
21 *76:A *52:B 0
*RES
1 *50:X *20:12 7.875 
2 *20:12 *52:B 7.485 
3 *20:12 *51:B 6.03 
*END

*D_NET *21 0.0016825
*CONN
*I *59:A I *D sky130_fd_sc_hd__xnor2_1
*I *53:A I *D sky130_fd_sc_hd__nand2_1
*I *51:X O *D sky130_fd_sc_hd__or2_1
*CAP
1 *59:A 1.97562e-05
2 *53:A 0
3 *51:X 0.000347412
4 *21:8 0.000367168
5 *59:A *62:B1 0.00012657
6 *59:A *41:29 4.85494e-05
7 *21:8 *55:A1 4.35348e-05
8 *21:8 *55:A3 1.85451e-05
9 *21:8 *55:B1 4.82863e-05
10 *21:8 *62:A1 0.000130345
11 *21:8 *62:B1 4.92432e-05
12 *21:8 *68:CLK 0
13 *21:8 *30:12 8.40269e-05
14 *21:8 *41:18 4.66108e-05
15 *21:8 *41:29 0.000228937
16 *51:B *21:8 2.8185e-05
17 *55:A2 *21:8 8.65961e-05
18 *68:D *21:8 8.73389e-06
*RES
1 *51:X *21:8 9.91 
2 *21:8 *53:A 1.6 
3 *21:8 *59:A 2.74 
*END

*D_NET *22 0.000909049
*CONN
*I *53:B I *D sky130_fd_sc_hd__nand2_1
*I *52:Y O *D sky130_fd_sc_hd__nand2_1
*CAP
1 *53:B 0.000305132
2 *52:Y 0.000305132
3 *53:B *50:B 1.39097e-05
4 *53:B *62:A2 9.05299e-05
5 *53:B *39:10 3.00381e-05
6 *53:B *39:23 9.66021e-05
7 *53:B *40:31 0
8 *53:B *40:53 0
9 *20:12 *53:B 6.77062e-05
*RES
1 *52:Y *53:B 13.83 
*END

*D_NET *23 0.000916257
*CONN
*I *55:A3 I *D sky130_fd_sc_hd__a31o_1
*I *53:Y O *D sky130_fd_sc_hd__nand2_1
*CAP
1 *55:A3 0.000217808
2 *53:Y 0.000217808
3 *55:A3 *50:B 2.50188e-05
4 *55:A3 *55:A1 7.60965e-05
5 *55:A3 *62:A2 9.18292e-06
6 *55:A3 *62:B1 0.000270426
7 *55:A3 *30:12 1.47256e-05
8 *55:A3 *40:31 5.36384e-06
9 *55:A3 *41:14 1.83847e-05
10 *55:A2 *55:A3 2.11084e-05
11 *20:12 *55:A3 2.17886e-05
12 *21:8 *55:A3 1.85451e-05
*RES
1 *53:Y *55:A3 8.75 
*END

*D_NET *24 0.000677615
*CONN
*I *55:B1 I *D sky130_fd_sc_hd__a31o_1
*I *54:X O *D sky130_fd_sc_hd__a21o_1
*CAP
1 *55:B1 0.000138835
2 *54:X 0.000138835
3 *55:B1 *55:A1 0.000351658
4 *55:A2 *55:B1 0
5 *21:8 *55:B1 4.82863e-05
*RES
1 *54:X *55:B1 11.07 
*END

*D_NET *25 9.40065e-05
*CONN
*I *58:A I *D sky130_fd_sc_hd__nand2_1
*I *56:X O *D sky130_fd_sc_hd__a21o_1
*CAP
1 *58:A 7.00326e-06
2 *56:X 7.00326e-06
3 *58:A *57:C 4.99619e-05
4 *58:A *41:46 3.00381e-05
*RES
1 *56:X *58:A 3.65 
*END

*D_NET *26 0.00151191
*CONN
*I *58:B I *D sky130_fd_sc_hd__nand2_1
*I *62:B1 I *D sky130_fd_sc_hd__o31ai_1
*I *57:Y O *D sky130_fd_sc_hd__nand3_1
*CAP
1 *58:B 5.18398e-05
2 *62:B1 0.000182297
3 *57:Y 1.88809e-05
4 *26:6 0.000253018
5 *58:B *57:A 1.16578e-05
6 *58:B *57:C 4.99619e-05
7 *58:B *59:B 0.000125646
8 *58:B *40:25 3.018e-05
9 *62:B1 *57:A 0.00012657
10 *62:B1 *59:B 2.0514e-05
11 *62:B1 *62:A1 6.68519e-05
12 *62:B1 *62:A2 2.91343e-05
13 *62:B1 *30:12 3.70572e-05
14 *62:B1 *40:25 5.43869e-05
15 *62:B1 *40:31 0
16 *62:B1 *41:29 7.67415e-06
17 *55:A3 *62:B1 0.000270426
18 *59:A *62:B1 0.00012657
19 *21:8 *62:B1 4.92432e-05
*RES
1 *57:Y *26:6 1.96 
2 *26:6 *62:B1 7.585 
3 *26:6 *58:B 3.55 
*END

*D_NET *27 0.000744312
*CONN
*I *59:B I *D sky130_fd_sc_hd__xnor2_1
*I *58:Y O *D sky130_fd_sc_hd__nand2_1
*CAP
1 *59:B 5.6256e-05
2 *58:Y 5.6256e-05
3 *59:B *57:A 0.00012657
4 *59:B *57:C 2.30292e-05
5 *59:B *41:29 0.000222017
6 *59:B *41:46 0.000114024
7 *58:B *59:B 0.000125646
8 *62:B1 *59:B 2.0514e-05
*RES
1 *58:Y *59:B 6.41 
*END

*D_NET *28 0.000752692
*CONN
*I *61:A2 I *D sky130_fd_sc_hd__o21ai_1
*I *59:Y O *D sky130_fd_sc_hd__xnor2_1
*CAP
1 *61:A2 0.000152786
2 *59:Y 0.000152786
3 *61:A2 *67:CLK 0
4 *61:A2 *72:A 4.27745e-05
5 *61:A2 *73:A 1.23244e-05
6 *61:A2 *40:57 0.0002457
7 *48:A2 *61:A2 0.000146322
*RES
1 *59:Y *61:A2 12.15 
*END

*D_NET *29 0.000650968
*CONN
*I *61:B1 I *D sky130_fd_sc_hd__o21ai_1
*I *60:Y O *D sky130_fd_sc_hd__a21oi_1
*CAP
1 *61:B1 0.000148584
2 *60:Y 0.000148584
3 *61:B1 *73:A 0.000123242
4 *61:B1 *36:8 0
5 *48:A2 *61:B1 0.000124902
6 *60:A2 *61:B1 0.000105654
7 *69:D *61:B1 0
*RES
1 *60:Y *61:B1 11.1 
*END

*D_NET *30 0.00186499
*CONN
*I *65:C I *D sky130_fd_sc_hd__nand4_1
*I *64:A2 I *D sky130_fd_sc_hd__a31o_1
*I *62:Y O *D sky130_fd_sc_hd__o31ai_1
*CAP
1 *65:C 6.2504e-05
2 *64:A2 0
3 *62:Y 0.000216413
4 *30:12 0.000278916
5 *65:C *45:A 3.57349e-05
6 *65:C *64:B1 2.30292e-05
7 *65:C *65:A 0.000163199
8 *65:C *65:D 0.00016063
9 *65:C *31:14 0
10 *65:C *37:41 4.21314e-05
11 *30:12 *54:A1 0.000143073
12 *30:12 *55:A1 0.000345494
13 *30:12 *62:A1 2.3845e-05
14 *30:12 *31:14 0
15 *30:12 *37:30 0.000187766
16 *30:12 *37:41 9.50342e-06
17 *30:12 *41:14 3.69428e-05
18 *55:A3 *30:12 1.47256e-05
19 *62:B1 *30:12 3.70572e-05
20 *71:A *30:12 0
21 *21:8 *30:12 8.40269e-05
*RES
1 *62:Y *30:12 10.725 
2 *30:12 *64:A2 3.6 
3 *30:12 *65:C 6.045 
*END

*D_NET *31 0.00157129
*CONN
*I *64:A3 I *D sky130_fd_sc_hd__a31o_1
*I *65:D I *D sky130_fd_sc_hd__nand4_1
*I *63:Y O *D sky130_fd_sc_hd__nand2b_1
*CAP
1 *64:A3 0
2 *65:D 4.17205e-05
3 *63:Y 0.000267751
4 *31:14 0.000309472
5 *65:D *45:A 2.63406e-05
6 *65:D *64:B1 8.8266e-05
7 *65:D *66:A3 6.60059e-05
8 *31:14 *45:A 0.000163199
9 *31:14 *54:A1 8.76645e-06
10 *31:14 *63:B 0
11 *31:14 *66:A3 0.000151541
12 *31:14 *39:50 6.53854e-05
13 *31:14 *41:29 1.7386e-05
14 *45:B *31:14 7.06865e-05
15 *46:A *31:14 0
16 *65:C *65:D 0.00016063
17 *65:C *31:14 0
18 *71:A *31:14 0.000134139
19 *30:12 *31:14 0
*RES
1 *63:Y *31:14 12.23 
2 *31:14 *65:D 3.43 
3 *31:14 *64:A3 1.6 
*END

*D_NET *32 0.000436722
*CONN
*I *66:A2 I *D sky130_fd_sc_hd__a31o_1
*I *64:X O *D sky130_fd_sc_hd__a31o_1
*CAP
1 *66:A2 4.81777e-05
2 *64:X 4.81777e-05
3 *66:A2 *45:A 1.47347e-05
4 *66:A2 *66:A3 0.000122325
5 *66:A1 *66:A2 2.31547e-05
6 *15:21 *66:A2 0.000122325
7 *15:36 *66:A2 5.78262e-05
*RES
1 *64:X *66:A2 5.045 
*END

*D_NET *33 0.000966064
*CONN
*I *66:A3 I *D sky130_fd_sc_hd__a31o_1
*I *65:Y O *D sky130_fd_sc_hd__nand4_1
*CAP
1 *66:A3 0.000102531
2 *65:Y 0.000102531
3 *66:A3 *45:A 1.91597e-05
4 *66:A3 *64:B1 0.00012657
5 *66:A3 *65:B 0
6 *65:D *66:A3 6.60059e-05
7 *66:A2 *66:A3 0.000122325
8 *15:21 *66:A3 0.000275399
9 *31:14 *66:A3 0.000151541
*RES
1 *65:Y *66:A3 7.565 
*END

*D_NET *34 0.00140893
*CONN
*I *73:A I *D sky130_fd_sc_hd__clkbuf_16
*I *72:A I *D sky130_fd_sc_hd__clkbuf_16
*I *71:X O *D sky130_fd_sc_hd__clkbuf_16
*CAP
1 *73:A 5.67307e-05
2 *72:A 0.000225193
3 *71:X 0
4 *34:6 0.000281924
5 *72:A *46:B 7.35729e-05
6 *72:A *63:B 7.17369e-05
7 *72:A *67:CLK 0.000100162
8 *72:A *39:50 8.62147e-05
9 *73:A *67:CLK 0.00025631
10 *48:A2 *73:A 5.1877e-05
11 *60:B1 *72:A 2.68664e-05
12 *61:A2 *72:A 4.27745e-05
13 *61:A2 *73:A 1.23244e-05
14 *61:B1 *73:A 0.000123242
15 *18:15 *72:A 0
*RES
1 *71:X *34:6 3.6 
2 *34:6 *72:A 9.315 
3 *34:6 *73:A 6.51 
*END

*D_NET *35 0.00222879
*CONN
*I *70:CLK I *D sky130_fd_sc_hd__dfxtp_1
*I *68:CLK I *D sky130_fd_sc_hd__dfxtp_1
*I *72:X O *D sky130_fd_sc_hd__clkbuf_16
*CAP
1 *70:CLK 0.000502374
2 *68:CLK 0.000240563
3 *72:X 0
4 *35:6 0.000742936
5 *68:CLK *51:A 1.34361e-05
6 *68:CLK *55:A1 0
7 *68:CLK *39:6 0
8 *68:CLK *39:10 0
9 *68:CLK *41:14 0
10 *70:CLK *45:A 5.5289e-06
11 *70:CLK *65:A 3.06697e-05
12 *70:CLK *37:30 0
13 *70:CLK *37:41 0
14 *70:CLK *43:16 0.000110372
15 *51:B *68:CLK 6.63141e-05
16 *55:A2 *68:CLK 8.35003e-05
17 *55:A2 *70:CLK 0.00019517
18 *68:D *68:CLK 0.000124259
19 *70:D *70:CLK 0.000113663
20 *74:A *70:CLK 0
21 *21:8 *68:CLK 0
*RES
1 *72:X *35:6 3.6 
2 *35:6 *68:CLK 8.865 
3 *35:6 *70:CLK 14.325 
*END

*D_NET *36 0.00160298
*CONN
*I *69:CLK I *D sky130_fd_sc_hd__dfxtp_1
*I *67:CLK I *D sky130_fd_sc_hd__dfxtp_1
*I *73:X O *D sky130_fd_sc_hd__clkbuf_16
*CAP
1 *69:CLK 3.10587e-05
2 *67:CLK 0.000110757
3 *73:X 0.000262827
4 *36:8 0.000404643
5 *48:A2 *67:CLK 2.03321e-05
6 *48:A2 *69:CLK 4.58014e-05
7 *61:A2 *67:CLK 0
8 *61:B1 *36:8 0
9 *67:D *67:CLK 0.000163113
10 *67:D *69:CLK 1.01661e-05
11 *69:D *67:CLK 2.92496e-05
12 *69:D *69:CLK 0.000100162
13 *69:D *36:8 6.83991e-05
14 *72:A *67:CLK 0.000100162
15 *73:A *67:CLK 0.00025631
*RES
1 *73:X *36:8 8.19 
2 *36:8 *67:CLK 8.295 
3 *36:8 *69:CLK 4.98 
*END

*D_NET *37 0.00399645
*CONN
*I *45:A I *D sky130_fd_sc_hd__nand2_1
*I *65:A I *D sky130_fd_sc_hd__nand4_1
*I *64:A1 I *D sky130_fd_sc_hd__a31o_1
*I *55:A1 I *D sky130_fd_sc_hd__a31o_1
*I *47:A I *D sky130_fd_sc_hd__nor2_1
*I *74:X O *D sky130_fd_sc_hd__buf_1
*CAP
1 *45:A 0.000241137
2 *65:A 0.000115995
3 *64:A1 0
4 *55:A1 0.000112947
5 *47:A 0
6 *74:X 0.000122345
7 *37:41 0.000396061
8 *37:30 0.000128985
9 *37:17 0.000245732
10 *37:8 0.000165075
11 *55:A1 *41:14 1.15688e-05
12 *65:A *44:A 0
13 *65:A *64:B1 1.12578e-05
14 *65:A *65:B 2.15495e-05
15 *65:A *43:16 5.77017e-05
16 *37:8 *44:A 0
17 *37:8 *47:B 0.000273
18 *45:B *45:A 0.000146322
19 *54:B1 *37:8 0
20 *55:A2 *55:A1 0
21 *55:A2 *37:30 0
22 *55:A3 *55:A1 7.60965e-05
23 *55:B1 *55:A1 0.000351658
24 *61:A1 *45:A 0
25 *65:C *45:A 3.57349e-05
26 *65:C *65:A 0.000163199
27 *65:C *37:41 4.21314e-05
28 *65:D *45:A 2.63406e-05
29 *66:A2 *45:A 1.47347e-05
30 *66:A3 *45:A 1.91597e-05
31 *68:CLK *55:A1 0
32 *70:CLK *45:A 5.5289e-06
33 *70:CLK *65:A 3.06697e-05
34 *70:CLK *37:30 0
35 *70:CLK *37:41 0
36 *70:D *45:A 0.000113551
37 *15:6 *37:8 4.65607e-05
38 *15:21 *37:8 4.7101e-05
39 *15:21 *37:17 0
40 *16:6 *45:A 8.65905e-05
41 *18:8 *37:8 1.33293e-05
42 *18:8 *37:17 0.000124895
43 *21:8 *55:A1 4.35348e-05
44 *30:12 *55:A1 0.000345494
45 *30:12 *37:30 0.000187766
46 *30:12 *37:41 9.50342e-06
47 *31:14 *45:A 0.000163199
*RES
1 *74:X *37:8 5.335 
2 *37:8 *47:A 1.6 
3 *37:8 *37:17 3.14 
4 *37:17 *55:A1 8.925 
5 *37:17 *37:30 2.145 
6 *37:30 *64:A1 3.6 
7 *37:30 *37:41 2.87 
8 *37:41 *65:A 4.84 
9 *37:41 *45:A 12.32 
*END

*D_NET *38 0.000945141
*CONN
*I *44:A I *D sky130_fd_sc_hd__inv_2
*I *47:B I *D sky130_fd_sc_hd__nor2_1
*I *75:X O *D sky130_fd_sc_hd__buf_1
*CAP
1 *44:A 7.25681e-05
2 *47:B 0.000263502
3 *75:X 0
4 *38:4 0.00033607
5 *44:A *65:B 0
6 *44:A *43:8 0
7 *65:A *44:A 0
8 *37:8 *44:A 0
9 *37:8 *47:B 0.000273
*RES
1 *75:X *38:4 1.6 
2 *38:4 *47:B 7.69 
3 *38:4 *44:A 2.92 
*END

*D_NET *39 0.00338712
*CONN
*I *51:A I *D sky130_fd_sc_hd__or2_1
*I *46:B I *D sky130_fd_sc_hd__nor2_1
*I *63:A_N I *D sky130_fd_sc_hd__nand2b_1
*I *62:A1 I *D sky130_fd_sc_hd__o31ai_1
*I *52:A I *D sky130_fd_sc_hd__nand2_1
*I *76:X O *D sky130_fd_sc_hd__buf_1
*CAP
1 *51:A 9.7205e-05
2 *46:B 3.57909e-05
3 *63:A_N 1.19067e-05
4 *62:A1 3.78488e-05
5 *52:A 2.08101e-05
6 *76:X 2.65566e-05
7 *39:50 0.00026531
8 *39:23 0.000537126
9 *39:10 0.000505975
10 *39:6 0.000327261
11 *46:B *63:B 6.6564e-05
12 *62:A1 *62:A2 2.91343e-05
13 *39:23 *62:A2 8.97486e-05
14 *39:23 *41:14 6.55406e-05
15 *39:50 *54:A1 0.000123242
16 *39:50 *62:A2 4.43871e-06
17 *39:50 *63:B 5.43314e-05
18 *39:50 *40:57 0
19 *39:50 *41:14 5.21209e-05
20 *39:50 *41:18 9.60582e-07
21 *39:50 *41:29 3.90652e-05
22 *51:B *39:23 0
23 *52:B *51:A 0
24 *52:B *39:10 0.000163204
25 *52:B *39:23 0
26 *53:B *39:10 3.00381e-05
27 *53:B *39:23 9.66021e-05
28 *62:B1 *62:A1 6.68519e-05
29 *68:CLK *51:A 1.34361e-05
30 *68:CLK *39:6 0
31 *68:CLK *39:10 0
32 *68:D *51:A 0.000122548
33 *68:D *39:10 0
34 *72:A *46:B 7.35729e-05
35 *72:A *39:50 8.62147e-05
36 *76:A *51:A 0.000124137
37 *18:15 *39:50 0
38 *20:12 *39:10 0
39 *21:8 *62:A1 0.000130345
40 *30:12 *62:A1 2.3845e-05
41 *31:14 *39:50 6.53854e-05
*RES
1 *76:X *39:6 2.05 
2 *39:6 *39:10 4.17 
3 *39:10 *52:A 1.96 
4 *39:10 *39:23 7.415 
5 *39:23 *62:A1 5.565 
6 *39:23 *39:50 7.49 
7 *39:50 *63:A_N 1.96 
8 *39:50 *46:B 3.1 
9 *39:6 *51:A 8.765 
*END

*D_NET *40 0.00487614
*CONN
*I *77:A I *D sky130_fd_sc_hd__buf_1
*I *57:A I *D sky130_fd_sc_hd__nand3_1
*I *48:A1 I *D sky130_fd_sc_hd__a21oi_1
*I *49:A1 I *D sky130_fd_sc_hd__o21ai_1
*I *50:A I *D sky130_fd_sc_hd__xor2_1
*I *62:A2 I *D sky130_fd_sc_hd__o31ai_1
*I *56:A1 I *D sky130_fd_sc_hd__a21o_1
*I *67:Q O *D sky130_fd_sc_hd__dfxtp_1
*CAP
1 *77:A 0.000138999
2 *57:A 5.0693e-05
3 *48:A1 5.31115e-05
4 *49:A1 9.87545e-05
5 *50:A 0
6 *62:A2 0.000103631
7 *56:A1 8.78734e-06
8 *67:Q 0
9 *40:57 0.000407596
10 *40:53 0.000387996
11 *40:31 0.000267795
12 *40:25 0.000556885
13 *40:12 0.000519068
14 *40:6 0.000338132
15 *56:A1 *79:A 3.72916e-05
16 *62:A2 *50:B 4.99619e-05
17 *77:A *78:A 0
18 *77:A *42:16 3.00696e-05
19 *40:12 *56:A2 0
20 *40:12 *78:A 0
21 *40:12 *79:A 6.6925e-05
22 *40:25 *57:C 8.40325e-05
23 *40:25 *79:A 0
24 *40:53 *57:B 0
25 *40:57 *57:B 0
26 *40:57 *63:B 0
27 counter[1] *77:A 0.000111059
28 counter[2] *40:12 1.73593e-05
29 *46:A *40:57 2.42236e-05
30 *48:A2 *48:A1 5.83121e-06
31 *48:A2 *40:57 7.62996e-05
32 *48:B1 *48:A1 4.82919e-05
33 *48:B1 *49:A1 4.66108e-05
34 *48:B1 *40:57 0.000142294
35 *53:B *62:A2 9.05299e-05
36 *53:B *40:31 0
37 *53:B *40:53 0
38 *55:A3 *62:A2 9.18292e-06
39 *55:A3 *40:31 5.36384e-06
40 *58:B *57:A 1.16578e-05
41 *58:B *40:25 3.018e-05
42 *59:B *57:A 0.00012657
43 *61:A1 *48:A1 4.40325e-06
44 *61:A1 *49:A1 7.27298e-06
45 *61:A2 *40:57 0.0002457
46 *62:A1 *62:A2 2.91343e-05
47 *62:B1 *57:A 0.00012657
48 *62:B1 *62:A2 2.91343e-05
49 *62:B1 *40:25 5.43869e-05
50 *62:B1 *40:31 0
51 *66:B1 *49:A1 0
52 *67:D *48:A1 7.9205e-06
53 *70:D *49:A1 0
54 *16:6 *49:A1 1.4389e-05
55 *17:8 *40:57 0.000100156
56 *17:19 *40:57 4.9968e-05
57 *17:32 *40:57 0.000167735
58 *39:23 *62:A2 8.97486e-05
59 *39:50 *62:A2 4.43871e-06
60 *39:50 *40:57 0
*RES
1 *67:Q *40:6 3.6 
2 *40:6 *40:12 5.63 
3 *40:12 *56:A1 2.395 
4 *40:12 *40:25 8.84 
5 *40:25 *40:31 4.79 
6 *40:31 *62:A2 8.5625 
7 *40:31 *50:A 1.6 
8 *40:25 *40:53 1.38 
9 *40:53 *40:57 9.755 
10 *40:57 *49:A1 3.355 
11 *40:57 *48:A1 2.74 
12 *40:53 *57:A 5.19 
13 *40:6 *77:A 6.81 
*END

*D_NET *41 0.00387739
*CONN
*I *50:B I *D sky130_fd_sc_hd__xor2_1
*I *54:A1 I *D sky130_fd_sc_hd__a21o_1
*I *78:A I *D sky130_fd_sc_hd__buf_1
*I *56:A2 I *D sky130_fd_sc_hd__a21o_1
*I *57:B I *D sky130_fd_sc_hd__nand3_1
*I *62:A3 I *D sky130_fd_sc_hd__o31ai_1
*I *68:Q O *D sky130_fd_sc_hd__dfxtp_1
*CAP
1 *50:B 0.000111522
2 *54:A1 5.97497e-05
3 *78:A 0.000214798
4 *56:A2 3.32034e-05
5 *57:B 8.72141e-05
6 *62:A3 0
7 *68:Q 0
8 *41:46 0.000352264
9 *41:29 0.000351489
10 *41:18 0.000184064
11 *41:14 0.000224981
12 *41:4 0.000252701
13 *56:A2 *42:24 1.94805e-05
14 *78:A *42:16 7.35813e-05
15 *78:A *42:20 8.13542e-05
16 *78:A *42:24 3.77199e-05
17 *41:29 *63:B 0.000145309
18 *41:46 *57:C 3.86988e-05
19 *41:46 *63:B 9.13777e-05
20 *41:46 *79:A 0.000123225
21 counter[1] *78:A 0
22 *51:B *41:14 0
23 *53:B *50:B 1.39097e-05
24 *55:A1 *41:14 1.15688e-05
25 *55:A3 *50:B 2.50188e-05
26 *55:A3 *41:14 1.83847e-05
27 *58:A *41:46 3.00381e-05
28 *59:A *41:29 4.85494e-05
29 *59:B *41:29 0.000222017
30 *59:B *41:46 0.000114024
31 *62:A2 *50:B 4.99619e-05
32 *62:B1 *41:29 7.67415e-06
33 *67:D *78:A 0
34 *68:CLK *41:14 0
35 *71:A *54:A1 6.31497e-05
36 *77:A *78:A 0
37 *20:12 *50:B 1.03323e-05
38 *20:12 *41:14 1.7386e-05
39 *21:8 *41:18 4.66108e-05
40 *21:8 *41:29 0.000228937
41 *30:12 *54:A1 0.000143073
42 *30:12 *41:14 3.69428e-05
43 *31:14 *54:A1 8.76645e-06
44 *31:14 *41:29 1.7386e-05
45 *39:23 *41:14 6.55406e-05
46 *39:50 *54:A1 0.000123242
47 *39:50 *41:14 5.21209e-05
48 *39:50 *41:18 9.60582e-07
49 *39:50 *41:29 3.90652e-05
50 *40:12 *56:A2 0
51 *40:12 *78:A 0
52 *40:53 *57:B 0
53 *40:57 *57:B 0
*RES
1 *68:Q *41:4 1.6 
2 *41:4 *41:14 5.15 
3 *41:14 *41:18 2.45 
4 *41:18 *62:A3 1.6 
5 *41:18 *41:29 6.09 
6 *41:29 *57:B 6.665 
7 *41:29 *41:46 5.555 
8 *41:46 *56:A2 4.215 
9 *41:46 *78:A 8.415 
10 *41:14 *54:A1 6.51 
11 *41:4 *50:B 4.06 
*END

*D_NET *42 0.00338837
*CONN
*I *60:A1 I *D sky130_fd_sc_hd__a21oi_1
*I *63:B I *D sky130_fd_sc_hd__nand2b_1
*I *79:A I *D sky130_fd_sc_hd__buf_1
*I *56:B1 I *D sky130_fd_sc_hd__a21o_1
*I *57:C I *D sky130_fd_sc_hd__nand3_1
*I *69:Q O *D sky130_fd_sc_hd__dfxtp_1
*CAP
1 *60:A1 0
2 *63:B 0.000294974
3 *79:A 0.000171066
4 *56:B1 0
5 *57:C 6.87696e-05
6 *69:Q 0.000374657
7 *42:24 0.000334304
8 *42:20 0.00047923
9 *42:16 0.000464445
10 counter[0] *42:16 9.26907e-06
11 counter[1] *42:16 8.53113e-06
12 *46:A *63:B 4.43871e-06
13 *46:B *63:B 6.6564e-05
14 *56:A1 *79:A 3.72916e-05
15 *56:A2 *42:24 1.94805e-05
16 *58:A *57:C 4.99619e-05
17 *58:B *57:C 4.99619e-05
18 *59:B *57:C 2.30292e-05
19 *60:A2 *63:B 0
20 *60:A2 *42:16 2.75229e-05
21 *60:B1 *63:B 0
22 *67:D *63:B 6.50844e-06
23 *67:D *42:20 0
24 *72:A *63:B 7.17369e-05
25 *77:A *42:16 3.00696e-05
26 *78:A *42:16 7.35813e-05
27 *78:A *42:20 8.13542e-05
28 *78:A *42:24 3.77199e-05
29 *31:14 *63:B 0
30 *39:50 *63:B 5.43314e-05
31 *40:12 *79:A 6.6925e-05
32 *40:25 *57:C 8.40325e-05
33 *40:25 *79:A 0
34 *40:57 *63:B 0
35 *41:29 *63:B 0.000145309
36 *41:46 *57:C 3.86988e-05
37 *41:46 *63:B 9.13777e-05
38 *41:46 *79:A 0.000123225
*RES
1 *69:Q *42:16 12.86 
2 *42:16 *42:20 4.145 
3 *42:20 *42:24 3.635 
4 *42:24 *57:C 4.135 
5 *42:24 *56:B1 1.6 
6 *42:24 *79:A 5.53 
7 *42:20 *63:B 14.5487 
8 *42:16 *60:A1 1.6 
*END

*D_NET *43 0.00137445
*CONN
*I *80:A I *D sky130_fd_sc_hd__buf_1
*I *64:B1 I *D sky130_fd_sc_hd__a31o_1
*I *65:B I *D sky130_fd_sc_hd__nand4_1
*I *70:Q O *D sky130_fd_sc_hd__dfxtp_1
*CAP
1 *80:A 0.000114852
2 *64:B1 2.11505e-05
3 *65:B 2.02086e-05
4 *70:Q 2.6262e-05
5 *43:16 0.00024357
6 *43:8 0.000343325
7 counter[3] *80:A 6.63219e-06
8 *44:A *65:B 0
9 *44:A *43:8 0
10 *65:A *64:B1 1.12578e-05
11 *65:A *65:B 2.15495e-05
12 *65:A *43:16 5.77017e-05
13 *65:C *64:B1 2.30292e-05
14 *65:D *64:B1 8.8266e-05
15 *66:A3 *64:B1 0.00012657
16 *66:A3 *65:B 0
17 *70:CLK *43:16 0.000110372
18 *75:A *43:16 4.64459e-05
19 *15:6 *43:16 6.97118e-05
20 *15:21 *64:B1 1.60203e-05
21 *15:21 *43:16 2.75229e-05
*RES
1 *70:Q *43:8 4.05 
2 *43:8 *43:16 6.845 
3 *43:16 *65:B 2.14 
4 *43:16 *64:B1 3.085 
5 *43:8 *80:A 5.685 
*END
