*SPEF "ieee 1481-1999"
*DESIGN "counter_dut"
*DATE "11:24:09 Wednesday December 04, 2024"
*VENDOR "The OpenROAD Project"
*PROGRAM "OpenROAD"
*VERSION "edf00dff99f6c40d67a30c0e22a8191c5d2ed9d6"
*DESIGN_FLOW "NAME_SCOPE LOCAL" "PIN_CAP NONE"
*DIVIDER /
*DELIMITER :
*BUS_DELIMITER []
*T_UNIT 1 NS
*C_UNIT 1 PF
*R_UNIT 1 OHM
*L_UNIT 1 HENRY

*NAME_MAP
*3 clk
*4 counter[0]
*5 counter[1]
*6 counter[2]
*7 counter[3]
*8 enable
*9 reset
*10 up_down
*11 _00_
*12 _01_
*13 _02_
*14 _03_
*15 _04_
*16 _05_
*17 _06_
*18 _07_
*19 _08_
*20 _09_
*21 _10_
*22 _11_
*23 _12_
*24 _13_
*25 _14_
*26 _15_
*27 _16_
*28 _17_
*29 _18_
*30 _19_
*31 _20_
*32 _21_
*33 _22_
*34 clknet_0_clk
*35 clknet_1_0__leaf_clk
*36 clknet_1_1__leaf_clk
*37 net1
*38 net2
*39 net3
*40 net4
*41 net5
*42 net6
*43 net7
*44 FILLER_0_15
*45 FILLER_0_27
*46 FILLER_0_29
*47 FILLER_0_3
*48 FILLER_0_35
*49 FILLER_0_47
*50 FILLER_1_35
*51 FILLER_1_43
*52 FILLER_1_6
*53 FILLER_2_26
*54 FILLER_2_3
*55 FILLER_2_37
*56 FILLER_2_45
*57 FILLER_3_3
*58 FILLER_5_19
*59 FILLER_6_26
*60 FILLER_7_18
*61 FILLER_7_27
*62 FILLER_7_32
*63 FILLER_7_40
*64 FILLER_7_48
*65 FILLER_7_6
*66 PHY_EDGE_ROW_0_Left_8
*67 PHY_EDGE_ROW_0_Right_0
*68 PHY_EDGE_ROW_1_Left_9
*69 PHY_EDGE_ROW_1_Right_1
*70 PHY_EDGE_ROW_2_Left_10
*71 PHY_EDGE_ROW_2_Right_2
*72 PHY_EDGE_ROW_3_Left_11
*73 PHY_EDGE_ROW_3_Right_3
*74 PHY_EDGE_ROW_4_Left_12
*75 PHY_EDGE_ROW_4_Right_4
*76 PHY_EDGE_ROW_5_Left_13
*77 PHY_EDGE_ROW_5_Right_5
*78 PHY_EDGE_ROW_6_Left_14
*79 PHY_EDGE_ROW_6_Right_6
*80 PHY_EDGE_ROW_7_Left_15
*81 PHY_EDGE_ROW_7_Right_7
*82 TAP_TAPCELL_ROW_0_16
*83 TAP_TAPCELL_ROW_2_17
*84 TAP_TAPCELL_ROW_4_18
*85 TAP_TAPCELL_ROW_6_19
*86 TAP_TAPCELL_ROW_7_20
*87 _23_
*88 _24_
*89 _25_
*90 _26_
*91 _27_
*92 _28_
*93 _29_
*94 _30_
*95 _31_
*96 _32_
*97 _33_
*98 _34_
*99 _35_
*100 _36_
*101 _37_
*102 _38_
*103 _39_
*104 _40_
*105 _41_
*106 _42_
*107 _43_
*108 _44_
*109 _45_
*110 _46_
*111 _47_
*112 _48_
*113 _49_
*114 clkbuf_0_clk
*115 clkbuf_1_0__f_clk
*116 clkbuf_1_1__f_clk
*117 input1
*118 input2
*119 input3
*120 output4
*121 output5
*122 output6
*123 output7

*PORTS
clk I
counter[0] O
counter[1] O
counter[2] O
counter[3] O
enable I
reset I
up_down I

*D_NET *3 0.00144495
*CONN
*P clk I
*I *114:A I *D sky130_fd_sc_hd__clkbuf_16
*CAP
1 clk 0.000687509
2 *114:A 0.000687509
3 *114:A *8:15 3.49463e-05
4 *114:A *10:17 2.12457e-05
5 *114:A *24:8 9.86551e-06
6 *114:A *37:22 3.87221e-06
*RES
1 clk *114:A 48.4528 
*END

*D_NET *4 0.00120922
*CONN
*P counter[0] O
*I *120:X O *D sky130_fd_sc_hd__buf_1
*CAP
1 counter[0] 0.000191181
2 *120:X 0.000158581
3 *4:8 0.000349762
4 counter[0] counter[1] 6.62302e-05
5 counter[0] counter[2] 0
6 *4:8 counter[1] 7.8712e-05
7 *4:8 *40:12 0.000294113
8 *4:8 *42:10 7.06367e-05
*RES
1 *120:X *4:8 42.8989 
2 *4:8 counter[0] 8.75787 
*END

*D_NET *5 0.000875257
*CONN
*P counter[1] O
*I *121:X O *D sky130_fd_sc_hd__buf_1
*CAP
1 counter[1] 0.000268413
2 *121:X 0.000268413
3 counter[1] counter[2] 6.86084e-05
4 counter[1] *40:12 3.22879e-05
5 counter[1] *40:21 1.65191e-05
6 counter[1] *42:10 7.60729e-05
7 counter[0] counter[1] 6.62302e-05
8 *4:8 counter[1] 7.8712e-05
*RES
1 *121:X counter[1] 49.7481 
*END

*D_NET *6 0.000570421
*CONN
*P counter[2] O
*I *122:X O *D sky130_fd_sc_hd__buf_1
*CAP
1 counter[2] 0.000239066
2 *122:X 0.000239066
3 counter[2] *99:B1 2.36804e-05
4 counter[0] counter[2] 0
5 counter[1] counter[2] 6.86084e-05
*RES
1 *122:X counter[2] 47.4311 
*END

*D_NET *7 0.000696531
*CONN
*P counter[3] O
*I *123:X O *D sky130_fd_sc_hd__buf_1
*CAP
1 counter[3] 0.000334541
2 *123:X 0.000334541
3 counter[3] *9:17 2.74495e-05
*RES
1 *123:X counter[3] 49.8062 
*END

*D_NET *8 0.00101079
*CONN
*P enable I
*I *117:A I *D sky130_fd_sc_hd__buf_1
*CAP
1 enable 0.00032263
2 *117:A 0
3 *8:15 0.00032263
4 *8:15 *9:17 0.000260156
5 *8:15 *38:8 7.0429e-05
6 *114:A *8:15 3.49463e-05
*RES
1 enable *8:15 29.5117 
2 *8:15 *117:A 23 
*END

*D_NET *9 0.000825153
*CONN
*P reset I
*I *118:A I *D sky130_fd_sc_hd__buf_1
*CAP
1 reset 0.000268774
2 *118:A 0
3 *9:17 0.000268774
4 counter[3] *9:17 2.74495e-05
5 *8:15 *9:17 0.000260156
*RES
1 reset *9:17 27.5105 
2 *9:17 *118:A 23 
*END

*D_NET *10 0.000755011
*CONN
*P up_down I
*I *119:A I *D sky130_fd_sc_hd__buf_1
*CAP
1 up_down 0.000366883
2 *119:A 0
3 *10:17 0.000366883
4 *114:A *10:17 2.12457e-05
*RES
1 up_down *10:17 28.2148 
2 *10:17 *119:A 23 
*END

*D_NET *11 0.000962395
*CONN
*I *110:D I *D sky130_fd_sc_hd__dfxtp_2
*I *92:Y O *D sky130_fd_sc_hd__o21ai_1
*CAP
1 *110:D 0.000124836
2 *92:Y 0.000101799
3 *11:8 0.000226634
4 *110:D *108:A 2.45549e-06
5 *110:D *36:16 5.3304e-05
6 *110:D *41:103 5.3304e-05
7 *11:8 *104:A1 1.14452e-05
8 *11:8 *16:8 0.000194309
9 *11:8 *41:103 0.000194309
*RES
1 *92:Y *11:8 40.61 
2 *11:8 *110:D 39.8902 
*END

*D_NET *12 0.000564951
*CONN
*I *111:D I *D sky130_fd_sc_hd__dfxtp_1
*I *98:X O *D sky130_fd_sc_hd__a31o_1
*CAP
1 *111:D 0.000143195
2 *98:X 9.67085e-05
3 *12:8 0.000239904
4 *12:8 *23:10 8.51432e-05
5 *12:8 *35:12 0
*RES
1 *98:X *12:8 40.2579 
2 *12:8 *111:D 40.5737 
*END

*D_NET *13 0.000492087
*CONN
*I *112:D I *D sky130_fd_sc_hd__dfxtp_1
*I *104:Y O *D sky130_fd_sc_hd__o21ai_1
*CAP
1 *112:D 6.79379e-05
2 *104:Y 9.23702e-05
3 *13:8 0.000160308
4 *112:D *92:B1 3.22854e-05
5 *112:D *36:35 0.000104407
6 *13:8 *36:35 3.47781e-05
7 *13:8 *40:12 0
*RES
1 *104:Y *13:8 39.5536 
2 *13:8 *112:D 39.6209 
*END

*D_NET *14 0.000352658
*CONN
*I *113:D I *D sky130_fd_sc_hd__dfxtp_1
*I *109:X O *D sky130_fd_sc_hd__a31o_1
*CAP
1 *113:D 0.000157537
2 *109:X 0.000157537
3 *113:D *109:A2 3.7122e-06
4 *113:D *15:38 3.38724e-05
5 *113:D *17:45 0
*RES
1 *109:X *113:D 48.5323 
*END

*D_NET *15 0.00409172
*CONN
*I *88:B I *D sky130_fd_sc_hd__nand2_1
*I *109:A1 I *D sky130_fd_sc_hd__a31o_1
*I *98:A2 I *D sky130_fd_sc_hd__a31o_1
*I *89:A I *D sky130_fd_sc_hd__nor2_1
*I *87:Y O *D sky130_fd_sc_hd__inv_2
*CAP
1 *88:B 0
2 *109:A1 0
3 *98:A2 0.000145942
4 *89:A 0
5 *87:Y 4.67522e-05
6 *15:51 0.000214182
7 *15:38 0.000774882
8 *15:21 0.000851744
9 *15:12 0.000240912
10 *15:6 0.000432767
11 *98:A2 *23:10 1.14452e-05
12 *98:A2 *35:25 2.29192e-05
13 *98:A2 *37:16 0.000108681
14 *98:A2 *37:22 0.000273351
15 *15:6 *107:B1 6.17437e-06
16 *15:6 *38:23 1.57571e-05
17 *15:12 *35:12 0
18 *15:12 *37:16 3.21223e-05
19 *15:21 *107:A2 1.24376e-05
20 *15:21 *107:B1 5.41385e-05
21 *15:21 *38:23 2.25809e-05
22 *15:38 *109:A2 7.15126e-05
23 *15:38 *32:10 0
24 *15:38 *35:25 8.65436e-05
25 *15:38 *37:10 8.62783e-05
26 *15:38 *37:16 5.46706e-05
27 *15:38 *38:23 0
28 *15:38 *43:23 0
29 *15:51 *16:8 0.000141888
30 *15:51 *17:45 2.18506e-05
31 *15:51 *17:60 0.000255207
32 *15:51 *37:43 7.31082e-05
33 *113:D *15:38 3.38724e-05
*RES
1 *87:Y *15:6 23.6214 
2 *15:6 *15:12 34.7229 
3 *15:12 *89:A 23 
4 *15:6 *15:21 17.0507 
5 *15:21 *98:A2 43.075 
6 *15:21 *15:38 24.5286 
7 *15:38 *109:A1 23 
8 *15:38 *15:51 35.9657 
9 *15:51 *88:B 23 
*END

*D_NET *16 0.00309607
*CONN
*I *92:A2 I *D sky130_fd_sc_hd__o21ai_1
*I *104:A1 I *D sky130_fd_sc_hd__o21ai_1
*I *88:Y O *D sky130_fd_sc_hd__nand2_1
*CAP
1 *92:A2 0
2 *104:A1 0.000247706
3 *88:Y 0.0002376
4 *16:8 0.000485306
5 *104:A1 *121:A 0.0001948
6 *104:A1 *17:73 9.41704e-05
7 *104:A1 *30:10 2.49733e-05
8 *104:A1 *34:6 2.31687e-05
9 *104:A1 *34:25 0.000222113
10 *104:A1 *40:21 8.76309e-05
11 *104:A1 *40:25 0.000273555
12 *104:A1 *40:35 0.000181174
13 *104:A1 *41:103 0.000245747
14 *16:8 *17:60 8.51432e-05
15 *16:8 *19:10 0
16 *16:8 *34:25 0.000311437
17 *16:8 *36:16 2.26489e-05
18 *16:8 *37:43 0
19 *16:8 *41:103 1.12487e-05
20 *11:8 *104:A1 1.14452e-05
21 *11:8 *16:8 0.000194309
22 *15:51 *16:8 0.000141888
*RES
1 *88:Y *16:8 44.8357 
2 *16:8 *104:A1 47.5286 
3 *16:8 *92:A2 38 
*END

*D_NET *17 0.00597556
*CONN
*I *103:B1 I *D sky130_fd_sc_hd__a21oi_1
*I *91:B1 I *D sky130_fd_sc_hd__a21oi_1
*I *109:B1 I *D sky130_fd_sc_hd__a31o_1
*I *97:B1 I *D sky130_fd_sc_hd__a21o_1
*I *89:Y O *D sky130_fd_sc_hd__nor2_1
*CAP
1 *103:B1 0
2 *91:B1 0
3 *109:B1 0
4 *97:B1 3.62304e-05
5 *89:Y 0.000383434
6 *17:73 0.000333335
7 *17:60 0.000439863
8 *17:45 0.000543534
9 *17:28 0.000421621
10 *17:22 0.000998489
11 *97:B1 *18:16 4.70953e-05
12 *97:B1 *18:24 1.14452e-05
13 *97:B1 *33:16 1.22906e-05
14 *17:22 *89:B 0.000225742
15 *17:22 *98:B1 0.000144325
16 *17:22 *34:14 0.000139346
17 *17:22 *40:35 9.45591e-05
18 *17:28 *108:C 1.7387e-05
19 *17:28 *18:24 0.000395475
20 *17:28 *30:10 2.82307e-05
21 *17:28 *37:43 0.000145633
22 *17:28 *42:43 0.000166513
23 *17:45 *18:16 9.16223e-05
24 *17:45 *37:43 2.70433e-05
25 *17:60 *91:A2 0.000188934
26 *17:60 *19:10 4.4859e-06
27 *17:73 *26:25 3.70094e-05
28 *17:73 *34:6 0.000123506
29 *17:73 *34:14 0.00017761
30 *17:73 *40:35 0.000127921
31 *17:73 *41:38 1.12487e-05
32 *17:73 *41:70 6.7911e-05
33 *17:73 *41:103 7.73541e-05
34 *104:A1 *17:73 9.41704e-05
35 *113:D *17:45 0
36 *15:51 *17:45 2.18506e-05
37 *15:51 *17:60 0.000255207
38 *16:8 *17:60 8.51432e-05
*RES
1 *89:Y *17:22 32.86 
2 *17:22 *17:28 22.4054 
3 *17:28 *97:B1 39.0254 
4 *17:28 *17:45 17.4961 
5 *17:45 *109:B1 23 
6 *17:45 *17:60 39.3214 
7 *17:60 *91:B1 23 
8 *17:22 *17:73 37.1464 
9 *17:73 *103:B1 23 
*END

*D_NET *18 0.00489553
*CONN
*I *91:A2 I *D sky130_fd_sc_hd__a21oi_1
*I *97:A2 I *D sky130_fd_sc_hd__a21o_1
*I *103:A2 I *D sky130_fd_sc_hd__a21oi_1
*I *90:Y O *D sky130_fd_sc_hd__nor2_1
*CAP
1 *91:A2 0.000332992
2 *97:A2 4.83826e-05
3 *103:A2 0
4 *90:Y 0
5 *18:30 7.96592e-05
6 *18:24 0.000539937
7 *18:16 0.000868631
8 *18:4 0.000692962
9 *91:A2 *88:A 0.000123944
10 *91:A2 *91:A1 5.67058e-05
11 *91:A2 *19:10 3.56392e-05
12 *97:A2 *108:B 1.41129e-05
13 *97:A2 *33:16 9.98862e-05
14 *97:A2 *41:103 5.02707e-05
15 *18:16 *108:B 9.5877e-05
16 *18:16 *33:16 0.000228303
17 *18:16 *37:43 0
18 *18:16 *38:23 0.000214806
19 *18:16 *41:103 0
20 *18:24 *89:B 0
21 *18:24 *24:8 3.99459e-05
22 *18:24 *31:8 0.000135547
23 *18:24 *34:14 5.56203e-05
24 *18:24 *37:22 0
25 *18:24 *40:35 0.000112087
26 *18:24 *42:43 5.20305e-05
27 *18:30 *99:A2 1.14452e-05
28 *18:30 *106:A_N 3.62219e-05
29 *18:30 *30:10 8.4047e-05
30 *18:30 *41:38 5.01986e-05
31 *18:30 *41:70 0.000101708
32 *97:B1 *18:16 4.70953e-05
33 *97:B1 *18:24 1.14452e-05
34 *17:28 *18:24 0.000395475
35 *17:45 *18:16 9.16223e-05
36 *17:60 *91:A2 0.000188934
*RES
1 *90:Y *18:4 23 
2 *18:4 *18:16 38.9486 
3 *18:16 *18:24 39.3629 
4 *18:24 *18:30 32.2579 
5 *18:30 *103:A2 23 
6 *18:16 *97:A2 24.6364 
7 *18:4 *91:A2 30.3121 
*END

*D_NET *19 0.00193526
*CONN
*I *92:B1 I *D sky130_fd_sc_hd__o21ai_1
*I *91:Y O *D sky130_fd_sc_hd__a21oi_1
*CAP
1 *92:B1 0.000353716
2 *91:Y 0.00048751
3 *19:10 0.000841227
4 *92:B1 *92:A1 7.22517e-06
5 *92:B1 *36:35 2.00441e-05
6 *19:10 *91:A1 3.70071e-06
7 *19:10 *36:35 0.000149423
8 *91:A2 *19:10 3.56392e-05
9 *112:D *92:B1 3.22854e-05
10 *16:8 *19:10 0
11 *17:60 *19:10 4.4859e-06
*RES
1 *91:Y *19:10 46.8864 
2 *19:10 *92:B1 42.7643 
*END

*D_NET *20 0.000857102
*CONN
*I *95:B I *D sky130_fd_sc_hd__nand2_1
*I *94:B I *D sky130_fd_sc_hd__or2_1
*I *93:X O *D sky130_fd_sc_hd__xor2_1
*CAP
1 *95:B 0.000157017
2 *94:B 0
3 *93:X 4.36295e-05
4 *20:8 0.000200647
5 *95:B *93:B 3.17516e-05
6 *95:B *96:A 1.14154e-05
7 *95:B *96:B 4.37033e-05
8 *95:B *99:A2 0
9 *95:B *102:A 3.53115e-05
10 *95:B *21:6 2.51896e-05
11 *95:B *23:10 7.39261e-05
12 *95:B *39:8 9.84794e-05
13 *95:B *39:19 4.2573e-05
14 *20:8 *93:B 3.67524e-05
15 *20:8 *96:A 0
16 *20:8 *39:8 5.67058e-05
*RES
1 *93:X *20:8 24.4707 
2 *20:8 *94:B 23 
3 *20:8 *95:B 28.0957 
*END

*D_NET *21 0.000771066
*CONN
*I *102:A I *D sky130_fd_sc_hd__xnor2_1
*I *96:A I *D sky130_fd_sc_hd__nand2_1
*I *94:X O *D sky130_fd_sc_hd__or2_1
*CAP
1 *102:A 0.000229076
2 *96:A 3.05557e-05
3 *94:X 2.70403e-05
4 *21:6 0.000286672
5 *96:A *96:B 2.02517e-05
6 *102:A *96:B 0.00010018
7 *102:A *99:A2 5.37348e-06
8 *95:B *96:A 1.14154e-05
9 *95:B *102:A 3.53115e-05
10 *95:B *21:6 2.51896e-05
11 *20:8 *96:A 0
*RES
1 *94:X *21:6 23.6214 
2 *21:6 *96:A 23.8493 
3 *21:6 *102:A 27.8057 
*END

*D_NET *22 0.000238104
*CONN
*I *96:B I *D sky130_fd_sc_hd__nand2_1
*I *95:Y O *D sky130_fd_sc_hd__nand2_1
*CAP
1 *96:B 3.69842e-05
2 *95:Y 3.69842e-05
3 *95:B *96:B 4.37033e-05
4 *96:A *96:B 2.02517e-05
5 *102:A *96:B 0.00010018
*RES
1 *95:Y *96:B 47.595 
*END

*D_NET *23 0.00153056
*CONN
*I *98:A3 I *D sky130_fd_sc_hd__a31o_1
*I *96:Y O *D sky130_fd_sc_hd__nand2_1
*CAP
1 *98:A3 0
2 *96:Y 0.000455385
3 *23:10 0.000455385
4 *23:10 *35:12 0
5 *23:10 *39:8 0.0002263
6 *23:10 *39:19 5.3304e-05
7 *23:10 *40:35 0
8 *23:10 *40:47 0.000169674
9 *95:B *23:10 7.39261e-05
10 *98:A2 *23:10 1.14452e-05
11 *12:8 *23:10 8.51432e-05
*RES
1 *96:Y *23:10 46.6793 
2 *23:10 *98:A3 38 
*END

*D_NET *24 0.00114891
*CONN
*I *98:B1 I *D sky130_fd_sc_hd__a31o_1
*I *97:X O *D sky130_fd_sc_hd__a21o_1
*CAP
1 *98:B1 3.74659e-05
2 *97:X 0.000200579
3 *24:8 0.000238045
4 *98:B1 *89:B 2.32004e-05
5 *98:B1 *40:35 0.00014196
6 *24:8 *30:18 8.62876e-05
7 *24:8 *34:14 0.000116314
8 *24:8 *37:22 0
9 *24:8 *37:37 0.000110922
10 *114:A *24:8 9.86551e-06
11 *17:22 *98:B1 0.000144325
12 *18:24 *24:8 3.99459e-05
*RES
1 *97:X *24:8 42.7229 
2 *24:8 *98:B1 40.0507 
*END

*D_NET *25 0.000616453
*CONN
*I *101:A I *D sky130_fd_sc_hd__nand2_1
*I *99:X O *D sky130_fd_sc_hd__a21o_1
*CAP
1 *101:A 0.000114536
2 *99:X 0.000185773
3 *25:10 0.000300309
4 *25:10 *99:A2 1.58337e-05
5 *25:10 *26:25 0
*RES
1 *99:X *25:10 40.8793 
2 *25:10 *101:A 40.0507 
*END

*D_NET *26 0.0018965
*CONN
*I *101:B I *D sky130_fd_sc_hd__nand2_1
*I *105:B1 I *D sky130_fd_sc_hd__o31ai_1
*I *100:Y O *D sky130_fd_sc_hd__nand3_1
*CAP
1 *101:B 0
2 *105:B1 0.000136694
3 *100:Y 6.32823e-05
4 *26:25 0.000348325
5 *26:8 0.000548302
6 *105:B1 *100:B 2.64616e-05
7 *105:B1 *39:36 4.9662e-05
8 *105:B1 *41:36 0.000226991
9 *105:B1 *42:43 4.38084e-05
10 *26:8 *100:A 2.47579e-05
11 *26:8 *100:B 4.03448e-05
12 *26:8 *29:10 2.93431e-05
13 *26:25 *95:A 0
14 *26:25 *99:A2 0.000137788
15 *26:25 *27:10 0.00014672
16 *26:25 *28:10 0
17 *26:25 *41:38 3.70094e-05
18 *17:73 *26:25 3.70094e-05
19 *25:10 *26:25 0
*RES
1 *100:Y *26:8 24.595 
2 *26:8 *105:B1 26.5007 
3 *26:8 *26:25 36.7529 
4 *26:25 *101:B 23 
*END

*D_NET *27 0.000520918
*CONN
*I *102:B I *D sky130_fd_sc_hd__xnor2_1
*I *101:Y O *D sky130_fd_sc_hd__nand2_1
*CAP
1 *102:B 4.24639e-05
2 *101:Y 0.000131404
3 *27:10 0.000173868
4 *102:B *99:A2 2.64616e-05
5 *26:25 *27:10 0.00014672
*RES
1 *101:Y *27:10 40.5271 
2 *27:10 *102:B 38.6214 
*END

*D_NET *28 0.00143017
*CONN
*I *104:A2 I *D sky130_fd_sc_hd__o21ai_1
*I *102:Y O *D sky130_fd_sc_hd__xnor2_1
*CAP
1 *104:A2 0.000119943
2 *102:Y 0.000338857
3 *28:10 0.000458799
4 *104:A2 *121:A 0.000137368
5 *28:10 *99:A1 7.91493e-05
6 *28:10 *99:A2 0.000190627
7 *28:10 *29:10 8.4047e-05
8 *28:10 *40:84 2.13834e-05
9 *26:25 *28:10 0
*RES
1 *102:Y *28:10 44.0693 
2 *28:10 *104:A2 39.5743 
*END

*D_NET *29 0.00102997
*CONN
*I *104:B1 I *D sky130_fd_sc_hd__o21ai_1
*I *103:Y O *D sky130_fd_sc_hd__a21oi_1
*CAP
1 *104:B1 0
2 *103:Y 0.000321671
3 *29:10 0.000321671
4 *29:10 *100:A 0.000137681
5 *29:10 *40:84 0.000135557
6 *26:8 *29:10 2.93431e-05
7 *28:10 *29:10 8.4047e-05
*RES
1 *103:Y *29:10 43.3857 
2 *29:10 *104:B1 38 
*END

*D_NET *30 0.00363018
*CONN
*I *108:C I *D sky130_fd_sc_hd__nand4_1
*I *107:A2 I *D sky130_fd_sc_hd__a31o_1
*I *105:Y O *D sky130_fd_sc_hd__o31ai_1
*CAP
1 *108:C 9.70457e-05
2 *107:A2 0.000143474
3 *105:Y 0.0003079
4 *30:18 0.000560153
5 *30:10 0.000821624
6 *107:A2 *107:A3 0.000180212
7 *107:A2 *32:10 5.3304e-05
8 *107:A2 *38:8 0
9 *107:A2 *38:23 2.18506e-05
10 *108:C *31:29 6.16531e-05
11 *108:C *34:25 0.000163361
12 *108:C *37:43 1.12487e-05
13 *30:10 *106:A_N 0.000345295
14 *30:10 *34:25 0.000223034
15 *30:10 *41:36 0.000181919
16 *30:10 *41:70 1.37349e-05
17 *30:10 *41:103 1.50124e-05
18 *30:18 *31:8 7.75329e-06
19 *30:18 *32:10 3.47781e-05
20 *30:18 *35:25 3.3746e-05
21 *30:18 *37:37 9.58714e-05
22 *30:18 *42:43 3.84478e-06
23 *104:A1 *30:10 2.49733e-05
24 *15:21 *107:A2 1.24376e-05
25 *17:28 *108:C 1.7387e-05
26 *17:28 *30:10 2.82307e-05
27 *18:30 *30:10 8.4047e-05
28 *24:8 *30:18 8.62876e-05
*RES
1 *105:Y *30:10 45.83 
2 *30:10 *30:18 35.51 
3 *30:18 *107:A2 41.0243 
4 *30:10 *108:C 40.2579 
*END

*D_NET *31 0.001867
*CONN
*I *108:D I *D sky130_fd_sc_hd__nand4_1
*I *107:A3 I *D sky130_fd_sc_hd__a31o_1
*I *106:Y O *D sky130_fd_sc_hd__nand2b_1
*CAP
1 *108:D 0
2 *107:A3 0.000135923
3 *106:Y 7.03966e-05
4 *31:29 0.000101605
5 *31:10 0.000237528
6 *31:8 7.03966e-05
7 *107:A3 *108:B 1.22822e-05
8 *107:A3 *33:16 9.68719e-05
9 *107:A3 *37:37 5.3304e-05
10 *107:A3 *38:23 0.000181919
11 *31:8 *37:37 0.000108681
12 *31:29 *108:A 5.50106e-05
13 *31:29 *33:16 0.000175903
14 *31:29 *37:37 0.000122599
15 *31:29 *37:43 5.94125e-05
16 *107:A2 *107:A3 0.000180212
17 *108:C *31:29 6.16531e-05
18 *18:24 *31:8 0.000135547
19 *30:18 *31:8 7.75329e-06
*RES
1 *106:Y *31:8 39.9057 
2 *31:8 *31:10 15 
3 *31:10 *107:A3 27.1221 
4 *31:10 *31:29 32.9 
5 *31:29 *108:D 23 
*END

*D_NET *32 0.00122114
*CONN
*I *109:A2 I *D sky130_fd_sc_hd__a31o_1
*I *107:X O *D sky130_fd_sc_hd__a31o_1
*CAP
1 *109:A2 9.42059e-05
2 *107:X 0.000196988
3 *32:10 0.000291194
4 *32:10 *35:25 0.000258729
5 *32:10 *38:23 0.000216721
6 *107:A2 *32:10 5.3304e-05
7 *113:D *109:A2 3.7122e-06
8 *15:38 *109:A2 7.15126e-05
9 *15:38 *32:10 0
10 *30:18 *32:10 3.47781e-05
*RES
1 *107:X *32:10 42.64 
2 *32:10 *109:A2 39.5743 
*END

*D_NET *33 0.00134812
*CONN
*I *109:A3 I *D sky130_fd_sc_hd__a31o_1
*I *108:Y O *D sky130_fd_sc_hd__nand4_1
*CAP
1 *109:A3 0
2 *108:Y 0.000221278
3 *33:16 0.000221278
4 *33:16 *108:A 3.55641e-05
5 *33:16 *108:B 2.18506e-05
6 *33:16 *38:23 0.000194318
7 *33:16 *41:103 4.05745e-05
8 *97:A2 *33:16 9.98862e-05
9 *97:B1 *33:16 1.22906e-05
10 *107:A3 *33:16 9.68719e-05
11 *18:16 *33:16 0.000228303
12 *31:29 *33:16 0.000175903
*RES
1 *108:Y *33:16 45.2293 
2 *33:16 *109:A3 38 
*END

*D_NET *34 0.00293253
*CONN
*I *116:A I *D sky130_fd_sc_hd__clkbuf_16
*I *115:A I *D sky130_fd_sc_hd__clkbuf_16
*I *114:X O *D sky130_fd_sc_hd__clkbuf_16
*CAP
1 *116:A 0
2 *115:A 0
3 *114:X 0.000151351
4 *34:25 0.000205128
5 *34:14 0.000308866
6 *34:6 0.000665346
7 *34:25 *37:43 4.6323e-05
8 *104:A1 *34:6 2.31687e-05
9 *104:A1 *34:25 0.000222113
10 *108:C *34:25 0.000163361
11 *16:8 *34:25 0.000311437
12 *17:22 *34:14 0.000139346
13 *17:73 *34:6 0.000123506
14 *17:73 *34:14 0.00017761
15 *18:24 *34:14 5.56203e-05
16 *24:8 *34:14 0.000116314
17 *30:10 *34:25 0.000223034
*RES
1 *114:X *34:6 25.0507 
2 *34:6 *34:14 35.0336 
3 *34:14 *115:A 23 
4 *34:6 *34:25 37.1879 
5 *34:25 *116:A 23 
*END

*D_NET *35 0.00283955
*CONN
*I *113:CLK I *D sky130_fd_sc_hd__dfxtp_1
*I *111:CLK I *D sky130_fd_sc_hd__dfxtp_1
*I *115:X O *D sky130_fd_sc_hd__clkbuf_16
*CAP
1 *113:CLK 0
2 *111:CLK 0
3 *115:X 0
4 *35:25 0.000618345
5 *35:12 0.000504132
6 *35:4 0.00112248
7 *35:25 *37:16 9.41704e-05
8 *35:25 *37:37 9.84851e-05
9 *98:A2 *35:25 2.29192e-05
10 *12:8 *35:12 0
11 *15:12 *35:12 0
12 *15:38 *35:25 8.65436e-05
13 *23:10 *35:12 0
14 *30:18 *35:25 3.3746e-05
15 *32:10 *35:25 0.000258729
*RES
1 *115:X *35:4 23 
2 *35:4 *35:12 38.5343 
3 *35:12 *111:CLK 23 
4 *35:4 *35:25 39.6321 
5 *35:25 *113:CLK 23 
*END

*D_NET *36 0.00246223
*CONN
*I *112:CLK I *D sky130_fd_sc_hd__dfxtp_1
*I *110:CLK I *D sky130_fd_sc_hd__dfxtp_2
*I *116:X O *D sky130_fd_sc_hd__clkbuf_16
*CAP
1 *112:CLK 0
2 *110:CLK 0
3 *116:X 0.000216058
4 *36:35 0.00044224
5 *36:16 0.00031907
6 *36:6 0.000977368
7 *36:16 *41:103 5.86204e-05
8 *36:35 *92:A1 6.42654e-05
9 *36:35 *40:12 0
10 *36:35 *41:103 0
11 *92:B1 *36:35 2.00441e-05
12 *110:D *36:16 5.3304e-05
13 *112:D *36:35 0.000104407
14 *13:8 *36:35 3.47781e-05
15 *16:8 *36:16 2.26489e-05
16 *19:10 *36:35 0.000149423
*RES
1 *116:X *36:6 25.5271 
2 *36:6 *36:16 35.0543 
3 *36:16 *110:CLK 23 
4 *36:6 *36:35 39.4457 
5 *36:35 *112:CLK 23 
*END

*D_NET *37 0.00543829
*CONN
*I *107:A1 I *D sky130_fd_sc_hd__a31o_1
*I *108:A I *D sky130_fd_sc_hd__nand4_1
*I *90:A I *D sky130_fd_sc_hd__nor2_1
*I *88:A I *D sky130_fd_sc_hd__nand2_1
*I *98:A1 I *D sky130_fd_sc_hd__a31o_1
*I *117:X O *D sky130_fd_sc_hd__buf_1
*CAP
1 *107:A1 0
2 *108:A 0.000238052
3 *90:A 0
4 *88:A 0.000159122
5 *98:A1 0
6 *117:X 0.000247426
7 *37:43 0.000507296
8 *37:37 0.000941057
9 *37:22 0.000184078
10 *37:16 0.000689275
11 *37:10 0.000397791
12 *108:A *41:103 1.81737e-05
13 *37:10 *107:B1 1.34354e-05
14 *37:10 *108:B 0.000140259
15 *37:10 *38:8 1.32939e-05
16 *37:10 *38:23 4.79544e-05
17 *37:10 *43:23 9.48381e-06
18 *37:16 *107:B1 2.76611e-06
19 *37:22 *40:35 6.07611e-06
20 *91:A2 *88:A 0.000123944
21 *98:A2 *37:16 0.000108681
22 *98:A2 *37:22 0.000273351
23 *107:A3 *37:37 5.3304e-05
24 *108:C *37:43 1.12487e-05
25 *110:D *108:A 2.45549e-06
26 *114:A *37:22 3.87221e-06
27 *15:12 *37:16 3.21223e-05
28 *15:38 *37:10 8.62783e-05
29 *15:38 *37:16 5.46706e-05
30 *15:51 *37:43 7.31082e-05
31 *16:8 *37:43 0
32 *17:28 *37:43 0.000145633
33 *17:45 *37:43 2.70433e-05
34 *18:16 *37:43 0
35 *18:24 *37:22 0
36 *24:8 *37:22 0
37 *24:8 *37:37 0.000110922
38 *30:18 *37:37 9.58714e-05
39 *31:8 *37:37 0.000108681
40 *31:29 *108:A 5.50106e-05
41 *31:29 *37:37 0.000122599
42 *31:29 *37:43 5.94125e-05
43 *33:16 *108:A 3.55641e-05
44 *34:25 *37:43 4.6323e-05
45 *35:25 *37:16 9.41704e-05
46 *35:25 *37:37 9.84851e-05
*RES
1 *117:X *37:10 42.205 
2 *37:10 *37:16 18.3557 
3 *37:16 *37:22 33.6664 
4 *37:22 *98:A1 23 
5 *37:16 *37:37 36.6079 
6 *37:37 *37:43 36.8357 
7 *37:43 *88:A 26.5214 
8 *37:43 *90:A 23 
9 *37:37 *108:A 26.3764 
10 *37:10 *107:A1 38 
*END

*D_NET *38 0.00264752
*CONN
*I *90:B I *D sky130_fd_sc_hd__nor2_1
*I *87:A I *D sky130_fd_sc_hd__inv_2
*I *118:X O *D sky130_fd_sc_hd__buf_1
*CAP
1 *90:B 0
2 *87:A 0
3 *118:X 0.000133338
4 *38:23 0.000471751
5 *38:8 0.000605088
6 *38:23 *107:B1 9.84851e-05
7 *38:23 *108:B 0.000339231
8 *107:A2 *38:8 0
9 *107:A2 *38:23 2.18506e-05
10 *107:A3 *38:23 0.000181919
11 *8:15 *38:8 7.0429e-05
12 *15:6 *38:23 1.57571e-05
13 *15:21 *38:23 2.25809e-05
14 *15:38 *38:23 0
15 *18:16 *38:23 0.000214806
16 *32:10 *38:23 0.000216721
17 *33:16 *38:23 0.000194318
18 *37:10 *38:8 1.32939e-05
19 *37:10 *38:23 4.79544e-05
*RES
1 *118:X *38:8 25.9 
2 *38:8 *87:A 23 
3 *38:8 *38:23 43.2157 
4 *38:23 *90:B 23 
*END

*D_NET *39 0.00507294
*CONN
*I *89:B I *D sky130_fd_sc_hd__nor2_1
*I *106:A_N I *D sky130_fd_sc_hd__nand2b_1
*I *95:A I *D sky130_fd_sc_hd__nand2_1
*I *105:A1 I *D sky130_fd_sc_hd__o31ai_1
*I *94:A I *D sky130_fd_sc_hd__or2_1
*I *119:X O *D sky130_fd_sc_hd__buf_1
*CAP
1 *89:B 0.000441552
2 *106:A_N 0.00018715
3 *95:A 0.000105295
4 *105:A1 0
5 *94:A 0
6 *119:X 0.000303826
7 *39:36 0.000464993
8 *39:23 0.000183635
9 *39:19 0.000571146
10 *39:8 0.000422334
11 *89:B *40:35 0.000171312
12 *89:B *41:25 2.55642e-05
13 *89:B *42:43 0
14 *95:A *99:A2 3.21223e-05
15 *95:A *42:43 3.47781e-05
16 *106:A_N *99:A2 7.76364e-06
17 *106:A_N *42:43 0.000434628
18 *39:8 *93:B 9.24795e-06
19 *39:8 *40:47 0.000141954
20 *39:19 *93:B 0.000110922
21 *39:19 *41:25 6.70363e-05
22 *39:19 *42:43 0
23 *39:23 *41:25 1.5547e-05
24 *39:36 *41:25 0.000101409
25 *39:36 *41:36 2.9938e-05
26 *39:36 *42:43 5.3304e-05
27 *95:B *39:8 9.84794e-05
28 *95:B *39:19 4.2573e-05
29 *98:B1 *89:B 2.32004e-05
30 *105:B1 *39:36 4.9662e-05
31 *17:22 *89:B 0.000225742
32 *18:24 *89:B 0
33 *18:30 *106:A_N 3.62219e-05
34 *20:8 *39:8 5.67058e-05
35 *23:10 *39:8 0.0002263
36 *23:10 *39:19 5.3304e-05
37 *26:25 *95:A 0
38 *30:10 *106:A_N 0.000345295
*RES
1 *119:X *39:8 30.3121 
2 *39:8 *94:A 23 
3 *39:8 *39:19 17.8793 
4 *39:19 *39:23 15.1812 
5 *39:23 *105:A1 23 
6 *39:23 *39:36 19.0859 
7 *39:36 *95:A 40.2579 
8 *39:36 *106:A_N 44.1314 
9 *39:19 *89:B 46.845 
*END

*D_NET *40 0.00894525
*CONN
*I *91:A1 I *D sky130_fd_sc_hd__a21oi_1
*I *100:A I *D sky130_fd_sc_hd__nand3_1
*I *99:A1 I *D sky130_fd_sc_hd__a21o_1
*I *92:A1 I *D sky130_fd_sc_hd__o21ai_1
*I *105:A2 I *D sky130_fd_sc_hd__o31ai_1
*I *93:A I *D sky130_fd_sc_hd__xor2_1
*I *120:A I *D sky130_fd_sc_hd__buf_1
*I *110:Q O *D sky130_fd_sc_hd__dfxtp_2
*CAP
1 *91:A1 0.000647174
2 *100:A 0.000109955
3 *99:A1 0.00015644
4 *92:A1 0.000343899
5 *105:A2 0.000125099
6 *93:A 0
7 *120:A 0
8 *110:Q 0
9 *40:84 0.000434358
10 *40:47 0.000273882
11 *40:37 0.000398981
12 *40:35 0.000464998
13 *40:25 0.000947155
14 *40:21 0.00047483
15 *40:12 0.000480808
16 *40:6 0.000959373
17 *92:A1 *41:103 3.34882e-05
18 *99:A1 *99:B1 5.79559e-05
19 *100:A *100:B 5.79559e-05
20 *100:A *42:29 0.000184407
21 *100:A *42:33 3.24528e-05
22 *105:A2 *41:25 0.000117614
23 *105:A2 *41:36 0
24 *40:21 *121:A 2.79292e-05
25 *40:35 *121:A 0.000184415
26 *40:35 *41:25 1.01436e-05
27 *40:47 *93:B 4.06849e-05
28 *40:47 *41:25 0
29 counter[1] *40:12 3.22879e-05
30 counter[1] *40:21 1.65191e-05
31 *89:B *40:35 0.000171312
32 *91:A2 *91:A1 5.67058e-05
33 *92:B1 *92:A1 7.22517e-06
34 *98:B1 *40:35 0.00014196
35 *104:A1 *40:21 8.76309e-05
36 *104:A1 *40:25 0.000273555
37 *104:A1 *40:35 0.000181174
38 *4:8 *40:12 0.000294113
39 *13:8 *40:12 0
40 *17:22 *40:35 9.45591e-05
41 *17:73 *40:35 0.000127921
42 *18:24 *40:35 0.000112087
43 *19:10 *91:A1 3.70071e-06
44 *23:10 *40:35 0
45 *23:10 *40:47 0.000169674
46 *26:8 *100:A 2.47579e-05
47 *28:10 *99:A1 7.91493e-05
48 *28:10 *40:84 2.13834e-05
49 *29:10 *100:A 0.000137681
50 *29:10 *40:84 0.000135557
51 *36:35 *92:A1 6.42654e-05
52 *36:35 *40:12 0
53 *37:22 *40:35 6.07611e-06
54 *39:8 *40:47 0.000141954
*RES
1 *110:Q *40:6 38 
2 *40:6 *40:12 22.105 
3 *40:12 *120:A 23 
4 *40:12 *40:21 3.50071 
5 *40:21 *40:25 18.0036 
6 *40:25 *40:35 41.2271 
7 *40:35 *40:37 15 
8 *40:37 *40:47 36.1107 
9 *40:47 *93:A 23 
10 *40:37 *105:A2 25.3096 
11 *40:25 *92:A1 43.365 
12 *40:21 *40:84 18.3143 
13 *40:84 *99:A1 40.8793 
14 *40:84 *100:A 42.1221 
15 *40:6 *91:A1 48.2121 
*END

*D_NET *41 0.00828137
*CONN
*I *97:A1 I *D sky130_fd_sc_hd__a21o_1
*I *121:A I *D sky130_fd_sc_hd__buf_1
*I *100:B I *D sky130_fd_sc_hd__nand3_1
*I *99:A2 I *D sky130_fd_sc_hd__a21o_1
*I *105:A3 I *D sky130_fd_sc_hd__o31ai_1
*I *93:B I *D sky130_fd_sc_hd__xor2_1
*I *111:Q O *D sky130_fd_sc_hd__dfxtp_1
*CAP
1 *97:A1 0
2 *121:A 0.000347152
3 *100:B 7.94165e-05
4 *99:A2 0.000476589
5 *105:A3 0
6 *93:B 0.000401128
7 *111:Q 0
8 *41:103 0.000650056
9 *41:70 0.00105887
10 *41:38 0.000582835
11 *41:36 0.000237526
12 *41:25 0.000254943
13 *41:6 0.000507031
14 *99:A2 *99:B1 0.000124769
15 *100:B *42:33 0.000185368
16 *100:B *42:43 1.24376e-05
17 *41:103 *108:B 0.000181125
18 *89:B *41:25 2.55642e-05
19 *92:A1 *41:103 3.34882e-05
20 *95:A *99:A2 3.21223e-05
21 *95:B *93:B 3.17516e-05
22 *95:B *99:A2 0
23 *97:A2 *41:103 5.02707e-05
24 *100:A *100:B 5.79559e-05
25 *102:A *99:A2 5.37348e-06
26 *102:B *99:A2 2.64616e-05
27 *104:A1 *121:A 0.0001948
28 *104:A1 *41:103 0.000245747
29 *104:A2 *121:A 0.000137368
30 *105:A2 *41:25 0.000117614
31 *105:A2 *41:36 0
32 *105:B1 *100:B 2.64616e-05
33 *105:B1 *41:36 0.000226991
34 *106:A_N *99:A2 7.76364e-06
35 *108:A *41:103 1.81737e-05
36 *110:D *41:103 5.3304e-05
37 *11:8 *41:103 0.000194309
38 *16:8 *41:103 1.12487e-05
39 *17:73 *41:38 1.12487e-05
40 *17:73 *41:70 6.7911e-05
41 *17:73 *41:103 7.73541e-05
42 *18:16 *41:103 0
43 *18:30 *99:A2 1.14452e-05
44 *18:30 *41:38 5.01986e-05
45 *18:30 *41:70 0.000101708
46 *20:8 *93:B 3.67524e-05
47 *25:10 *99:A2 1.58337e-05
48 *26:8 *100:B 4.03448e-05
49 *26:25 *99:A2 0.000137788
50 *26:25 *41:38 3.70094e-05
51 *28:10 *99:A2 0.000190627
52 *30:10 *41:36 0.000181919
53 *30:10 *41:70 1.37349e-05
54 *30:10 *41:103 1.50124e-05
55 *33:16 *41:103 4.05745e-05
56 *36:16 *41:103 5.86204e-05
57 *36:35 *41:103 0
58 *39:8 *93:B 9.24795e-06
59 *39:19 *93:B 0.000110922
60 *39:19 *41:25 6.70363e-05
61 *39:23 *41:25 1.5547e-05
62 *39:36 *41:25 0.000101409
63 *39:36 *41:36 2.9938e-05
64 *40:21 *121:A 2.79292e-05
65 *40:35 *121:A 0.000184415
66 *40:35 *41:25 1.01436e-05
67 *40:47 *93:B 4.06849e-05
68 *40:47 *41:25 0
*RES
1 *111:Q *41:6 38 
2 *41:6 *93:B 44.815 
3 *41:6 *41:25 18.2521 
4 *41:25 *105:A3 23 
5 *41:25 *41:36 18.9771 
6 *41:36 *41:38 0.849286 
7 *41:38 *99:A2 47.7564 
8 *41:38 *100:B 40.5479 
9 *41:36 *41:70 1.90571 
10 *41:70 *121:A 45.4779 
11 *41:70 *41:103 27.8429 
12 *41:103 *97:A1 23 
*END

*D_NET *42 0.00516267
*CONN
*I *122:A I *D sky130_fd_sc_hd__buf_1
*I *100:C I *D sky130_fd_sc_hd__nand3_1
*I *103:A1 I *D sky130_fd_sc_hd__a21oi_1
*I *106:B I *D sky130_fd_sc_hd__nand2b_1
*I *99:B1 I *D sky130_fd_sc_hd__a21o_1
*I *112:Q O *D sky130_fd_sc_hd__dfxtp_1
*CAP
1 *122:A 0
2 *100:C 0
3 *103:A1 0
4 *106:B 0
5 *99:B1 0.000429235
6 *112:Q 0.000356809
7 *42:43 0.000417894
8 *42:33 0.000645777
9 *42:29 0.000476675
10 *42:27 0.000371169
11 *42:10 0.000908422
12 counter[1] *42:10 7.60729e-05
13 counter[2] *99:B1 2.36804e-05
14 *89:B *42:43 0
15 *95:A *42:43 3.47781e-05
16 *99:A1 *99:B1 5.79559e-05
17 *99:A2 *99:B1 0.000124769
18 *100:A *42:29 0.000184407
19 *100:A *42:33 3.24528e-05
20 *100:B *42:33 0.000185368
21 *100:B *42:43 1.24376e-05
22 *105:B1 *42:43 4.38084e-05
23 *106:A_N *42:43 0.000434628
24 *4:8 *42:10 7.06367e-05
25 *17:28 *42:43 0.000166513
26 *18:24 *42:43 5.20305e-05
27 *30:18 *42:43 3.84478e-06
28 *39:19 *42:43 0
29 *39:36 *42:43 5.3304e-05
*RES
1 *112:Q *42:10 44.1729 
2 *42:10 *99:B1 46.1407 
3 *42:10 *42:27 17.0507 
4 *42:27 *42:29 4.90929 
5 *42:29 *42:33 3.85286 
6 *42:33 *42:43 38.6845 
7 *42:43 *106:B 23 
8 *42:33 *103:A1 23 
9 *42:29 *100:C 23 
10 *42:27 *122:A 23 
*END

*D_NET *43 0.00354608
*CONN
*I *108:B I *D sky130_fd_sc_hd__nand4_1
*I *107:B1 I *D sky130_fd_sc_hd__a31o_1
*I *123:A I *D sky130_fd_sc_hd__buf_1
*I *113:Q O *D sky130_fd_sc_hd__dfxtp_1
*CAP
1 *108:B 0.000562402
2 *107:B1 8.70463e-05
3 *123:A 0
4 *113:Q 8.52579e-05
5 *43:23 0.00106466
6 *43:12 0.000128509
7 *43:6 0.000628979
8 *97:A2 *108:B 1.41129e-05
9 *107:A3 *108:B 1.22822e-05
10 *15:6 *107:B1 6.17437e-06
11 *15:21 *107:B1 5.41385e-05
12 *15:38 *43:23 0
13 *18:16 *108:B 9.5877e-05
14 *33:16 *108:B 2.18506e-05
15 *37:10 *107:B1 1.34354e-05
16 *37:10 *108:B 0.000140259
17 *37:10 *43:23 9.48381e-06
18 *37:16 *107:B1 2.76611e-06
19 *38:23 *107:B1 9.84851e-05
20 *38:23 *108:B 0.000339231