*SPEF "ieee 1481-1999"
*DESIGN "counter_dut"
*DATE "11:16:33 Wednesday December 04, 2024"
*VENDOR "The OpenROAD Project"
*PROGRAM "OpenROAD"
*VERSION "edf00dff99f6c40d67a30c0e22a8191c5d2ed9d6"
*DESIGN_FLOW "NAME_SCOPE LOCAL" "PIN_CAP NONE"
*DIVIDER /
*DELIMITER :
*BUS_DELIMITER []
*T_UNIT 1 NS
*C_UNIT 1 PF
*R_UNIT 1 OHM
*L_UNIT 1 HENRY

*NAME_MAP
*1 clk
*2 counter[0]
*3 counter[1]
*4 counter[2]
*5 counter[3]
*6 enable
*7 reset
*8 up_down
*11 _00_
*12 _01_
*13 _02_
*14 _03_
*15 _04_
*16 _05_
*17 _06_
*18 _07_
*19 _08_
*20 _09_
*21 _10_
*22 _11_
*23 _12_
*24 _13_
*25 _14_
*26 _15_
*27 _16_
*28 _17_
*29 _18_
*30 _19_
*31 _20_
*32 _21_
*33 _22_
*34 clknet_0_clk
*35 clknet_1_0__leaf_clk
*36 clknet_1_1__leaf_clk
*37 net1
*38 net2
*39 net3
*40 net4
*41 net5
*42 net6
*43 net7
*44 _23_
*45 _24_
*46 _25_
*47 _26_
*48 _27_
*49 _28_
*50 _29_
*51 _30_
*52 _31_
*53 _32_
*54 _33_
*55 _34_
*56 _35_
*57 _36_
*58 _37_
*59 _38_
*60 _39_
*61 _40_
*62 _41_
*63 _42_
*64 _43_
*65 _44_
*66 _45_
*67 _46_
*68 _47_
*69 _48_
*70 _49_
*71 clkbuf_0_clk
*72 clkbuf_1_0__f_clk
*73 clkbuf_1_1__f_clk
*74 input1
*75 input2
*76 input3
*77 output4
*78 output5
*79 output6
*80 output7

*PORTS
clk I
counter[0] O
counter[1] O
counter[2] O
counter[3] O
enable I
reset I
up_down I

*D_NET *1 0.00140653
*CONN
*P clk I
*I *71:A I *D sky130_fd_sc_hd__clkbuf_16
*CAP
1 clk 0.000612851
2 *71:A 0.000612851
3 *71:A *54:A1 1.12577e-05
4 *71:A *65:C 0
5 *71:A *74:A 5.65933e-05
6 *71:A *76:A 5.40137e-05
7 *71:A *17:10 5.89612e-05
8 *71:A *30:16 0
*RES
1 clk *71:A 20.7217 
*END

*D_NET *2 0.000376414
*CONN
*P counter[0] O
*I *77:X O *D sky130_fd_sc_hd__buf_1
*CAP
1 counter[0] 0.000161197
2 *77:X 0.000161197
3 counter[0] counter[1] 5.40205e-05
4 counter[0] *40:10 0
*RES
1 *77:X counter[0] 18.5138 
*END

*D_NET *3 0.000481264
*CONN
*P counter[1] O
*I *78:X O *D sky130_fd_sc_hd__buf_1
*CAP
1 counter[1] 0.000185325
2 *78:X 0.000185325
3 counter[1] counter[2] 5.65933e-05
4 counter[1] *40:16 0
5 counter[1] *42:14 0
6 counter[0] counter[1] 5.40205e-05
*RES
1 *78:X counter[1] 19.7281 
*END

*D_NET *4 0.000524005
*CONN
*P counter[2] O
*I *79:X O *D sky130_fd_sc_hd__buf_1
*CAP
1 counter[2] 0.000233706
2 *79:X 0.000233706
3 counter[1] counter[2] 5.65933e-05
*RES
1 *79:X counter[2] 18.4264 
*END

*D_NET *5 0.000306255
*CONN
*P counter[3] O
*I *80:X O *D sky130_fd_sc_hd__buf_1
*CAP
1 counter[3] 0.000126121
2 *80:X 0.000126121
3 counter[3] *75:A 5.40137e-05
*RES
1 *80:X counter[3] 17.9067 
*END

*D_NET *6 0.000407652
*CONN
*P enable I
*I *74:A I *D sky130_fd_sc_hd__buf_1
*CAP
1 enable 0.000122703
2 *74:A 0.000122703
3 *74:A *70:CLK 5.16394e-05
4 *74:A *75:A 5.40137e-05
5 *71:A *74:A 5.65933e-05
*RES
1 enable *74:A 18.8174 
*END

*D_NET *7 0.000450383
*CONN
*P reset I
*I *75:A I *D sky130_fd_sc_hd__buf_1
*CAP
1 reset 0.000138307
2 *75:A 0.000138307
3 *75:A *70:CLK 6.57423e-05
4 counter[3] *75:A 5.40137e-05
5 *74:A *75:A 5.40137e-05
*RES
1 reset *75:A 19.1209 
*END

*D_NET *8 0.00048689
*CONN
*P up_down I
*I *76:A I *D sky130_fd_sc_hd__buf_1
*CAP
1 up_down 0.000216438
2 *76:A 0.000216438
3 *71:A *76:A 5.40137e-05
*RES
1 up_down *76:A 19.7281 
*END

*D_NET *11 0.000721478
*CONN
*I *67:D I *D sky130_fd_sc_hd__dfxtp_1
*I *49:Y O *D sky130_fd_sc_hd__o21ai_1
*CAP
1 *67:D 0.00017553
2 *49:Y 0.00017553
3 *67:D *49:B1 0.000230475
4 *67:D *61:A1 0
5 *67:D *73:A 0
6 *67:D *16:8 1.97695e-05
7 *67:D *18:20 0
8 *67:D *36:10 0.000120174
*RES
1 *49:Y *67:D 32.3187 
*END

*D_NET *12 0.000702568
*CONN
*I *68:D I *D sky130_fd_sc_hd__dfxtp_1
*I *55:X O *D sky130_fd_sc_hd__a31o_1
*CAP
1 *68:D 0.000351284
2 *55:X 0.000351284
3 *68:D *68:CLK 0
4 *68:D *70:CLK 0
5 *68:D *30:16 0
6 *68:D *39:10 0
*RES
1 *55:X *68:D 34.1937 
*END

*D_NET *13 0.000359441
*CONN
*I *69:D I *D sky130_fd_sc_hd__dfxtp_1
*I *61:Y O *D sky130_fd_sc_hd__o21ai_1
*CAP
1 *69:D 0.000155524
2 *61:Y 0.000155524
3 *69:D *53:B 0
4 *69:D *58:A 0
5 *69:D *60:A1 4.52037e-07
6 *69:D *63:B 0
7 *69:D *69:CLK 4.26347e-05
8 *69:D *72:A 5.30637e-06
9 *69:D *41:62 0
10 *69:D *42:22 0
*RES
1 *61:Y *69:D 21.7964 
*END

*D_NET *14 0.000660362
*CONN
*I *70:D I *D sky130_fd_sc_hd__dfxtp_1
*I *66:X O *D sky130_fd_sc_hd__a31o_1
*CAP
1 *70:D 0.000287786
2 *66:X 0.000287786
3 *70:D *47:B 0
4 *70:D *66:A2 2.55587e-05
5 *70:D *66:A3 1.97695e-05
6 *70:D *80:A 0
7 *70:D *18:8 3.94624e-05
8 *70:D *37:10 0
*RES
1 *66:X *70:D 24.533 
*END

*D_NET *15 0.00323444
*CONN
*I *45:B I *D sky130_fd_sc_hd__nand2_1
*I *66:A1 I *D sky130_fd_sc_hd__a31o_1
*I *46:A I *D sky130_fd_sc_hd__nor2_1
*I *55:A2 I *D sky130_fd_sc_hd__a31o_1
*I *44:Y O *D sky130_fd_sc_hd__inv_2
*CAP
1 *45:B 0
2 *66:A1 5.11631e-05
3 *46:A 6.20442e-05
4 *55:A2 0
5 *44:Y 0.000143422
6 *15:38 0.000284995
7 *15:21 0.000430298
8 *15:12 0.000277844
9 *46:A *53:A 1.02504e-05
10 *46:A *55:A3 8.32171e-05
11 *46:A *61:A1 0
12 *46:A *63:A_N 0.000170124
13 *46:A *63:B 1.76039e-05
14 *46:A *39:40 5.80706e-06
15 *66:A1 *49:A1 0
16 *66:A1 *66:A3 8.76109e-05
17 *66:A1 *66:B1 3.05893e-05
18 *66:A1 *16:8 0
19 *15:12 *64:A1 7.03295e-05
20 *15:12 *70:CLK 0
21 *15:12 *30:16 0.000153769
22 *15:12 *37:10 0.000105163
23 *15:12 *37:26 9.3562e-05
24 *15:21 *55:A3 0.000274942
25 *15:21 *55:B1 0.000144773
26 *15:21 *17:16 0.000178847
27 *15:21 *37:26 2.59355e-05
28 *15:21 *37:35 7.97019e-05
29 *15:38 *45:A 8.89385e-05
30 *15:38 *63:A_N 0.000167281
31 *15:38 *63:B 0.000152996
32 *15:38 *65:C 4.32309e-05
33 *15:38 *66:A2 0
*RES
1 *44:Y *15:12 23.2464 
2 *15:12 *55:A2 9.3 
3 *15:12 *15:21 9.55357 
4 *15:21 *46:A 16.05 
5 *15:21 *15:38 10.1429 
6 *15:38 *66:A1 11.0857 
7 *15:38 *45:B 9.3 
*END

*D_NET *16 0.00143589
*CONN
*I *61:A1 I *D sky130_fd_sc_hd__o21ai_1
*I *49:A2 I *D sky130_fd_sc_hd__o21ai_1
*I *45:Y O *D sky130_fd_sc_hd__nand2_1
*CAP
1 *61:A1 0.000247645
2 *49:A2 0
3 *45:Y 5.82243e-05
4 *16:8 0.000305869
5 *61:A1 *45:A 5.98338e-05
6 *61:A1 *49:A1 3.48001e-05
7 *61:A1 *53:A 0
8 *61:A1 *55:A3 0
9 *61:A1 *61:B1 0
10 *61:A1 *63:B 0
11 *61:A1 *65:A 0.000155476
12 *61:A1 *65:B 3.06878e-06
13 *61:A1 *66:A3 0.000177941
14 *61:A1 *72:A 5.99221e-05
15 *61:A1 *73:A 0.000138582
16 *16:8 *49:A1 3.4855e-05
17 *16:8 *66:A3 0.000139907
18 *46:A *61:A1 0
19 *66:A1 *16:8 0
20 *67:D *61:A1 0
21 *67:D *16:8 1.97695e-05
*RES
1 *45:Y *16:8 11.0857 
2 *16:8 *49:A2 9.3 
3 *16:8 *61:A1 25.9429 
*END

*D_NET *17 0.00406658
*CONN
*I *66:B1 I *D sky130_fd_sc_hd__a31o_1
*I *54:B1 I *D sky130_fd_sc_hd__a21o_1
*I *60:B1 I *D sky130_fd_sc_hd__a21oi_1
*I *48:B1 I *D sky130_fd_sc_hd__a21oi_1
*I *46:Y O *D sky130_fd_sc_hd__nor2_1
*CAP
1 *66:B1 0.00020681
2 *54:B1 9.74632e-05
3 *60:B1 0
4 *48:B1 5.70143e-05
5 *46:Y 0.000103085
6 *17:32 0.000391154
7 *17:16 0.000276541
8 *17:10 0.000409491
9 *48:B1 *48:A2 4.38128e-05
10 *48:B1 *60:A1 0.000111383
11 *48:B1 *18:20 0.000120604
12 *54:B1 *64:A3 3.54684e-05
13 *54:B1 *65:B 9.30603e-06
14 *54:B1 *18:8 6.61955e-05
15 *66:B1 *49:A1 0
16 *66:B1 *54:A1 9.54798e-06
17 *66:B1 *65:C 0
18 *66:B1 *66:A2 0.00013059
19 *66:B1 *66:A3 1.82657e-05
20 *66:B1 *43:8 7.69927e-05
21 *17:10 *54:A1 0.00015134
22 *17:10 *55:A3 4.53889e-05
23 *17:10 *55:B1 2.8266e-06
24 *17:10 *72:A 0.000136951
25 *17:10 *30:16 0
26 *17:16 *55:A3 1.21258e-05
27 *17:16 *60:A1 6.54721e-05
28 *17:16 *61:B1 0.000186669
29 *17:16 *63:B 0.000203218
30 *17:16 *65:A 0.000172309
31 *17:16 *72:A 0
32 *17:16 *18:20 9.09185e-05
33 *17:16 *37:35 0.000306324
34 *17:32 *54:A1 0.000198226
35 *17:32 *55:B1 4.60908e-05
36 *17:32 *65:B 1.47089e-05
37 *17:32 *30:16 0
38 *17:32 *43:8 1.89507e-06
39 *66:A1 *66:B1 3.05893e-05
40 *71:A *17:10 5.89612e-05
41 *15:21 *17:16 0.000178847
*RES
1 *46:Y *17:10 17.1036 
2 *17:10 *17:16 12.4464 
3 *17:16 *48:B1 11.4964 
4 *17:16 *60:B1 9.3 
5 *17:10 *17:32 2.55357 
6 *17:32 *54:B1 15.367 
7 *17:32 *66:B1 18.4429 
*END

*D_NET *18 0.00333234
*CONN
*I *54:A2 I *D sky130_fd_sc_hd__a21o_1
*I *48:A2 I *D sky130_fd_sc_hd__a21oi_1
*I *60:A2 I *D sky130_fd_sc_hd__a21oi_1
*I *47:Y O *D sky130_fd_sc_hd__nor2_1
*CAP
1 *54:A2 0
2 *48:A2 9.0497e-05
3 *60:A2 0
4 *47:Y 0.000192243
5 *18:20 0.000500818
6 *18:8 0.000602564
7 *48:A2 *40:8 0
8 *18:8 *64:A1 4.88637e-05
9 *18:8 *64:A3 3.59047e-05
10 *18:8 *64:B1 0.000271345
11 *18:8 *65:C 5.04841e-06
12 *18:8 *66:A2 0.000226513
13 *18:8 *66:A3 1.32552e-05
14 *18:8 *37:10 3.18676e-05
15 *18:20 *54:A1 0.000152575
16 *18:20 *61:B1 0.000186669
17 *18:20 *63:A_N 0.000150868
18 *18:20 *64:A3 4.35421e-05
19 *18:20 *65:A 0.000185799
20 *18:20 *65:B 0
21 *18:20 *65:C 0
22 *18:20 *65:D 1.13406e-05
23 *18:20 *37:35 0.000221634
24 *48:B1 *48:A2 4.38128e-05
25 *48:B1 *18:20 0.000120604
26 *54:B1 *18:8 6.61955e-05
27 *67:D *18:20 0
28 *70:D *18:8 3.94624e-05
29 *17:16 *18:20 9.09185e-05
*RES
1 *47:Y *18:8 15.6036 
2 *18:8 *18:20 20.0357 
3 *18:20 *60:A2 9.3 
4 *18:20 *48:A2 11.0679 
5 *18:8 *54:A2 9.3 
*END

*D_NET *19 0.00150831
*CONN
*I *49:B1 I *D sky130_fd_sc_hd__o21ai_1
*I *48:Y O *D sky130_fd_sc_hd__a21oi_1
*CAP
1 *49:B1 0.000243744
2 *48:Y 0.000243744
3 *49:B1 *49:A1 0.00064292
4 *49:B1 *69:CLK 0
5 *49:B1 *36:10 9.93135e-05
6 *49:B1 *40:10 4.81157e-05
7 *67:D *49:B1 0.000230475
*RES
1 *48:Y *49:B1 36.6179 
*END

*D_NET *20 0.000502399
*CONN
*I *52:B I *D sky130_fd_sc_hd__nand2_1
*I *51:B I *D sky130_fd_sc_hd__or2_1
*I *50:X O *D sky130_fd_sc_hd__xor2_1
*CAP
1 *52:B 5.48011e-05
2 *51:B 0
3 *50:X 4.3898e-05
4 *20:8 9.86991e-05
5 *52:B *50:B 4.0342e-06
6 *52:B *57:A 9.7049e-06
7 *52:B *21:18 5.71472e-05
8 *52:B *39:10 4.04982e-05
9 *52:B *39:12 3.99614e-06
10 *52:B *39:36 9.11545e-05
11 *52:B *41:19 4.40008e-05
12 *20:8 *50:B 1.72894e-05
13 *20:8 *39:10 2.7471e-05
14 *20:8 *39:12 9.7049e-06
*RES
1 *50:X *20:8 10.5679 
2 *20:8 *51:B 9.3 
3 *20:8 *52:B 11.9071 
*END

*D_NET *21 0.00121966
*CONN
*I *59:A I *D sky130_fd_sc_hd__xnor2_1
*I *53:A I *D sky130_fd_sc_hd__nand2_1
*I *51:X O *D sky130_fd_sc_hd__or2_1
*CAP
1 *59:A 0
2 *53:A 0.000104506
3 *51:X 0.000199127
4 *21:18 0.000303632
5 *53:A *53:B 0.000110761
6 *53:A *61:A2 3.42457e-05
7 *53:A *61:B1 0
8 *53:A *39:40 5.90443e-06
9 *53:A *42:39 0
10 *21:18 *53:B 0
11 *21:18 *54:A1 3.34366e-05
12 *21:18 *58:B 0
13 *21:18 *62:A1 3.88706e-05
14 *21:18 *62:A2 0
15 *21:18 *62:B1 0.00012935
16 *21:18 *30:16 9.33978e-07
17 *21:18 *39:40 0.00015134
18 *21:18 *41:19 1.92789e-05
19 *21:18 *41:23 1.24368e-05
20 *21:18 *41:45 8.43535e-06
21 *46:A *53:A 1.02504e-05
22 *52:B *21:18 5.71472e-05
23 *61:A1 *53:A 0
*RES
1 *51:X *21:18 23.1036 
2 *21:18 *53:A 21.1571 
3 *21:18 *59:A 9.3 
*END

*D_NET *22 0.000987277
*CONN
*I *53:B I *D sky130_fd_sc_hd__nand2_1
*I *52:Y O *D sky130_fd_sc_hd__nand2_1
*CAP
1 *53:B 0.000199788
2 *52:Y 0.000199788
3 *53:B *57:B 4.58096e-05
4 *53:B *59:B 0
5 *53:B *62:B1 0
6 *53:B *69:CLK 0
7 *53:B *72:A 9.76689e-05
8 *53:B *26:10 6.8646e-06
9 *53:B *39:40 0.000326597
10 *53:A *53:B 0.000110761
11 *69:D *53:B 0
12 *21:18 *53:B 0
*RES
1 *52:Y *53:B 33.8679 
*END

*D_NET *23 0.00107864
*CONN
*I *55:A3 I *D sky130_fd_sc_hd__a31o_1
*I *53:Y O *D sky130_fd_sc_hd__nand2_1
*CAP
1 *55:A3 0.000308336
2 *53:Y 0.000308336
3 *55:A3 *72:A 3.30417e-05
4 *55:A3 *30:16 0
5 *55:A3 *37:26 1.32552e-05
6 *46:A *55:A3 8.32171e-05
7 *61:A1 *55:A3 0
8 *15:21 *55:A3 0.000274942
9 *17:10 *55:A3 4.53889e-05
10 *17:16 *55:A3 1.21258e-05
*RES
1 *53:Y *55:A3 35.2429 
*END

*D_NET *24 0.000508377
*CONN
*I *55:B1 I *D sky130_fd_sc_hd__a31o_1
*I *54:X O *D sky130_fd_sc_hd__a21o_1
*CAP
1 *55:B1 8.59187e-05
2 *54:X 8.59187e-05
3 *55:B1 *30:16 0
4 *55:B1 *37:35 0.00014285
5 *15:21 *55:B1 0.000144773
6 *17:10 *55:B1 2.8266e-06
7 *17:32 *55:B1 4.60908e-05
*RES
1 *54:X *55:B1 30.6 
*END

*D_NET *25 9.14239e-05
*CONN
*I *58:A I *D sky130_fd_sc_hd__nand2_1
*I *56:X O *D sky130_fd_sc_hd__a21o_1
*CAP
1 *58:A 1.71383e-05
2 *56:X 1.71383e-05
3 *58:A *41:62 5.71472e-05
4 *69:D *58:A 0
*RES
1 *56:X *58:A 19.1357 
*END

*D_NET *26 0.00108093
*CONN
*I *58:B I *D sky130_fd_sc_hd__nand2_1
*I *62:B1 I *D sky130_fd_sc_hd__o31ai_1
*I *57:Y O *D sky130_fd_sc_hd__nand3_1
*CAP
1 *58:B 4.96868e-05
2 *62:B1 6.69548e-05
3 *57:Y 5.41387e-05
4 *26:10 0.00017078
5 *58:B *59:B 0.000102207
6 *58:B *41:62 0.000184655
7 *58:B *42:22 0
8 *62:B1 *59:B 6.05161e-06
9 *62:B1 *41:23 3.57366e-05
10 *62:B1 *41:45 0.000137983
11 *62:B1 *41:62 5.33005e-05
12 *26:10 *57:B 8.32171e-05
13 *26:10 *57:C 0
14 *53:B *62:B1 0
15 *53:B *26:10 6.8646e-06
16 *21:18 *58:B 0
17 *21:18 *62:B1 0.00012935
*RES
1 *57:Y *26:10 19.6393 
2 *26:10 *62:B1 11.4964 
3 *26:10 *58:B 11.4964 
*END

*D_NET *27 0.000293794
*CONN
*I *59:B I *D sky130_fd_sc_hd__xnor2_1
*I *58:Y O *D sky130_fd_sc_hd__nand2_1
*CAP
1 *59:B 7.43968e-05
2 *58:Y 7.43968e-05
3 *59:B *61:A2 1.71774e-05
4 *59:B *72:A 0
5 *59:B *41:62 1.95646e-05
6 *53:B *59:B 0
7 *58:B *59:B 0.000102207
8 *62:B1 *59:B 6.05161e-06
*RES
1 *58:Y *59:B 20.7786 
*END

*D_NET *28 0.000263896
*CONN
*I *61:A2 I *D sky130_fd_sc_hd__o21ai_1
*I *59:Y O *D sky130_fd_sc_hd__xnor2_1
*CAP
1 *61:A2 8.59607e-05
2 *59:Y 8.59607e-05
3 *61:A2 *72:A 4.0552e-05
4 *61:A2 *42:39 0
5 *53:A *61:A2 3.42457e-05
6 *59:B *61:A2 1.71774e-05
*RES
1 *59:Y *61:A2 29.9929 
*END

*D_NET *29 0.0011215
*CONN
*I *61:B1 I *D sky130_fd_sc_hd__o21ai_1
*I *60:Y O *D sky130_fd_sc_hd__a21oi_1
*CAP
1 *61:B1 0.000176859
2 *60:Y 0.000176859
3 *61:B1 *69:CLK 0.000204557
4 *61:B1 *40:10 0
5 *61:B1 *42:39 0.000189888
6 *53:A *61:B1 0
7 *61:A1 *61:B1 0
8 *17:16 *61:B1 0.000186669
9 *18:20 *61:B1 0.000186669
*RES
1 *60:Y *61:B1 33.4929 
*END

*D_NET *30 0.00301435
*CONN
*I *65:C I *D sky130_fd_sc_hd__nand4_1
*I *64:A2 I *D sky130_fd_sc_hd__a31o_1
*I *62:Y O *D sky130_fd_sc_hd__o31ai_1
*CAP
1 *65:C 0.000541736
2 *64:A2 0
3 *62:Y 0.000509057
4 *30:16 0.00105079
5 *65:C *63:B 6.66256e-05
6 *65:C *64:A3 8.82424e-06
7 *65:C *65:B 0.000350399
8 *65:C *65:D 3.97677e-05
9 *65:C *66:A2 2.8266e-06
10 *65:C *66:A3 3.80414e-05
11 *30:16 *54:A1 8.32171e-05
12 *30:16 *62:A2 1.45782e-05
13 *30:16 *65:B 0
14 *30:16 *72:A 2.22891e-05
15 *30:16 *39:40 8.32171e-05
16 *30:16 *41:19 0
17 *55:A3 *30:16 0
18 *55:B1 *30:16 0
19 *66:B1 *65:C 0
20 *68:D *30:16 0
21 *71:A *65:C 0
22 *71:A *30:16 0
23 *15:12 *30:16 0.000153769
24 *15:38 *65:C 4.32309e-05
25 *17:10 *30:16 0
26 *17:32 *30:16 0
27 *18:8 *65:C 5.04841e-06
28 *18:20 *65:C 0
29 *21:18 *30:16 9.33978e-07
*RES
1 *62:Y *30:16 32.8357 
2 *30:16 *64:A2 13.8 
3 *30:16 *65:C 25.2276 
*END

*D_NET *31 0.00105924
*CONN
*I *65:D I *D sky130_fd_sc_hd__nand4_1
*I *64:A3 I *D sky130_fd_sc_hd__a31o_1
*I *63:Y O *D sky130_fd_sc_hd__nand2b_1
*CAP
1 *65:D 0.000114642
2 *64:A3 0.000231736
3 *63:Y 0
4 *31:4 0.000346378
5 *64:A3 *47:A 0
6 *64:A3 *63:B 3.95407e-06
7 *64:A3 *64:B1 8.07313e-05
8 *64:A3 *66:A3 0
9 *64:A3 *37:35 5.365e-05
10 *65:D *63:B 5.33005e-05
11 *54:B1 *64:A3 3.54684e-05
12 *65:C *64:A3 8.82424e-06
13 *65:C *65:D 3.97677e-05
14 *18:8 *64:A3 3.59047e-05
15 *18:20 *64:A3 4.35421e-05
16 *18:20 *65:D 1.13406e-05
*RES
1 *63:Y *31:4 9.3 
2 *31:4 *64:A3 14.925 
3 *31:4 *65:D 11.8179 
*END

*D_NET *32 0.000671528
*CONN
*I *66:A2 I *D sky130_fd_sc_hd__a31o_1
*I *64:X O *D sky130_fd_sc_hd__a31o_1
*CAP
1 *66:A2 0.000135112
2 *64:X 0.000135112
3 *66:A2 *66:A3 1.58163e-05
4 *65:C *66:A2 2.8266e-06
5 *66:B1 *66:A2 0.00013059
6 *70:D *66:A2 2.55587e-05
7 *15:38 *66:A2 0
8 *18:8 *66:A2 0.000226513
*RES
1 *64:X *66:A2 31.4214 
*END

*D_NET *33 0.00113925
*CONN
*I *66:A3 I *D sky130_fd_sc_hd__a31o_1
*I *65:Y O *D sky130_fd_sc_hd__nand4_1
*CAP
1 *66:A3 0.00023918
2 *65:Y 0.00023918
3 *66:A3 *45:A 4.55913e-05
4 *66:A3 *65:B 0.000104691
5 *61:A1 *66:A3 0.000177941
6 *64:A3 *66:A3 0
7 *65:C *66:A3 3.80414e-05
8 *66:A1 *66:A3 8.76109e-05
9 *66:A2 *66:A3 1.58163e-05
10 *66:B1 *66:A3 1.82657e-05
11 *70:D *66:A3 1.97695e-05
12 *16:8 *66:A3 0.000139907
13 *18:8 *66:A3 1.32552e-05
*RES
1 *65:Y *66:A3 34.4036 
*END

*D_NET *34 0.0019377
*CONN
*I *73:A I *D sky130_fd_sc_hd__clkbuf_16
*I *72:A I *D sky130_fd_sc_hd__clkbuf_16
*I *71:X O *D sky130_fd_sc_hd__clkbuf_16
*CAP
1 *73:A 0.000108409
2 *72:A 0.000248282
3 *71:X 0
4 *34:6 0.000356692
5 *72:A *63:B 2.92588e-05
6 *72:A *69:CLK 0.000108118
7 *73:A *65:A 0.000153762
8 *73:A *69:CLK 0.000274394
9 *73:A *36:10 0.000124469
10 *53:B *72:A 9.76689e-05
11 *55:A3 *72:A 3.30417e-05
12 *59:B *72:A 0
13 *61:A1 *72:A 5.99221e-05
14 *61:A1 *73:A 0.000138582
15 *61:A2 *72:A 4.0552e-05
16 *67:D *73:A 0
17 *69:D *72:A 5.30637e-06
18 *17:10 *72:A 0.000136951
19 *17:16 *72:A 0
20 *30:16 *72:A 2.22891e-05
*RES
1 *71:X *34:6 13.8 
2 *34:6 *72:A 20.6036 
3 *34:6 *73:A 19.0857 
*END

*D_NET *35 0.00132959
*CONN
*I *70:CLK I *D sky130_fd_sc_hd__dfxtp_1
*I *68:CLK I *D sky130_fd_sc_hd__dfxtp_1
*I *72:X O *D sky130_fd_sc_hd__clkbuf_16
*CAP
1 *70:CLK 0.000426045
2 *68:CLK 0.00018006
3 *72:X 0
4 *35:6 0.000606105
5 *68:CLK *39:10 0
6 *68:D *68:CLK 0
7 *68:D *70:CLK 0
8 *74:A *70:CLK 5.16394e-05
9 *75:A *70:CLK 6.57423e-05
10 *15:12 *70:CLK 0
*RES
1 *72:X *35:6 13.8 
2 *35:6 *68:CLK 17.1929 
3 *35:6 *70:CLK 20.9071 
*END

*D_NET *36 0.0018966
*CONN
*I *67:CLK I *D sky130_fd_sc_hd__dfxtp_1
*I *69:CLK I *D sky130_fd_sc_hd__dfxtp_1
*I *73:X O *D sky130_fd_sc_hd__clkbuf_16
*CAP
1 *67:CLK 0
2 *69:CLK 0.000168249
3 *73:X 0.000282458
4 *36:10 0.000450707
5 *69:CLK *63:B 0
6 *36:10 *49:A1 2.15245e-05
7 *36:10 *40:8 0
8 *49:B1 *69:CLK 0
9 *49:B1 *36:10 9.93135e-05
10 *53:B *69:CLK 0
11 *61:B1 *69:CLK 0.000204557
12 *67:D *36:10 0.000120174
13 *69:D *69:CLK 4.26347e-05
14 *72:A *69:CLK 0.000108118
15 *73:A *69:CLK 0.000274394
16 *73:A *36:10 0.000124469
*RES
1 *73:X *36:10 20.9071 
2 *36:10 *69:CLK 19.4429 
3 *36:10 *67:CLK 13.8 
*END

*D_NET *37 0.00422203
*CONN
*I *65:A I *D sky130_fd_sc_hd__nand4_1
*I *45:A I *D sky130_fd_sc_hd__nand2_1
*I *55:A1 I *D sky130_fd_sc_hd__a31o_1
*I *64:A1 I *D sky130_fd_sc_hd__a31o_1
*I *47:A I *D sky130_fd_sc_hd__nor2_1
*I *74:X O *D sky130_fd_sc_hd__buf_1
*CAP
1 *65:A 0.000108291
2 *45:A 0.000121451
3 *55:A1 2.23854e-05
4 *64:A1 2.42092e-05
5 *47:A 1.91209e-05
6 *74:X 3.43233e-05
7 *37:35 0.000410183
8 *37:26 0.000382595
9 *37:10 0.000182297
10 *37:6 0.000353059
11 *45:A *63:B 0.000172941
12 *45:A *65:B 9.05964e-05
13 *47:A *38:8 0
14 *64:A1 *64:B1 5.71472e-05
15 *37:6 *38:8 0
16 *37:10 *47:B 0.000131439
17 *37:10 *38:8 5.71472e-05
18 *37:35 *64:B1 0
19 *55:A3 *37:26 1.32552e-05
20 *55:B1 *37:35 0.00014285
21 *61:A1 *45:A 5.98338e-05
22 *61:A1 *65:A 0.000155476
23 *64:A3 *47:A 0
24 *64:A3 *37:35 5.365e-05
25 *66:A3 *45:A 4.55913e-05
26 *70:D *37:10 0
27 *73:A *65:A 0.000153762
28 *15:12 *64:A1 7.03295e-05
29 *15:12 *37:10 0.000105163
30 *15:12 *37:26 9.3562e-05
31 *15:21 *37:26 2.59355e-05
32 *15:21 *37:35 7.97019e-05
33 *15:38 *45:A 8.89385e-05
34 *17:16 *65:A 0.000172309
35 *17:16 *37:35 0.000306324
36 *18:8 *64:A1 4.88637e-05
37 *18:8 *37:10 3.18676e-05
38 *18:20 *65:A 0.000185799
39 *18:20 *37:35 0.000221634
*RES
1 *74:X *37:6 9.83571 
2 *37:6 *37:10 4.53571 
3 *37:10 *47:A 9.72857 
4 *37:10 *64:A1 10.6571 
5 *37:6 *37:26 4.23214 
6 *37:26 *55:A1 9.72857 
7 *37:26 *37:35 5.875 
8 *37:35 *45:A 22.675 
9 *37:35 *65:A 22.55 
*END

*D_NET *38 0.0004403
*CONN
*I *47:B I *D sky130_fd_sc_hd__nor2_1
*I *44:A I *D sky130_fd_sc_hd__inv_2
*I *75:X O *D sky130_fd_sc_hd__buf_1
*CAP
1 *47:B 4.26827e-05
2 *44:A 0
3 *75:X 8.31743e-05
4 *38:8 0.000125857
5 *47:A *38:8 0
6 *70:D *47:B 0
7 *37:6 *38:8 0
8 *37:10 *47:B 0.000131439
9 *37:10 *38:8 5.71472e-05
*RES
1 *75:X *38:8 10.9786 
2 *38:8 *44:A 9.3 
3 *38:8 *47:B 10.6571 
*END

*D_NET *39 0.00359666
*CONN
*I *52:A I *D sky130_fd_sc_hd__nand2_1
*I *63:A_N I *D sky130_fd_sc_hd__nand2b_1
*I *46:B I *D sky130_fd_sc_hd__nor2_1
*I *51:A I *D sky130_fd_sc_hd__or2_1
*I *62:A1 I *D sky130_fd_sc_hd__o31ai_1
*I *76:X O *D sky130_fd_sc_hd__buf_1
*CAP
1 *52:A 1.88686e-05
2 *63:A_N 0.000172004
3 *46:B 0
4 *51:A 0
5 *62:A1 0.000130423
6 *76:X 0.000295335
7 *39:40 0.000284339
8 *39:36 0.000174748
9 *39:12 0.00014346
10 *39:10 0.000351917
11 *52:A *40:32 1.74352e-05
12 *52:A *41:45 5.39629e-06
13 *62:A1 *50:B 0
14 *62:A1 *62:A2 3.93247e-05
15 *62:A1 *41:19 5.52238e-05
16 *62:A1 *41:23 0
17 *63:A_N *54:A1 0.000121217
18 *39:10 *50:B 0
19 *39:10 *62:A2 0
20 *39:10 *40:32 0.000308417
21 *39:36 *57:A 5.7661e-06
22 *39:36 *40:32 9.77274e-05
23 *39:36 *41:45 0
24 *39:40 *54:A1 8.43858e-05
25 *39:40 *57:B 1.78447e-05
26 *46:A *63:A_N 0.000170124
27 *46:A *39:40 5.80706e-06
28 *52:B *39:10 4.04982e-05
29 *52:B *39:12 3.99614e-06
30 *52:B *39:36 9.11545e-05
31 *53:A *39:40 5.90443e-06
32 *53:B *39:40 0.000326597
33 *68:CLK *39:10 0
34 *68:D *39:10 0
35 *15:38 *63:A_N 0.000167281
36 *18:20 *63:A_N 0.000150868
37 *20:8 *39:10 2.7471e-05
38 *20:8 *39:12 9.7049e-06
39 *21:18 *62:A1 3.88706e-05
40 *21:18 *39:40 0.00015134
41 *30:16 *39:40 8.32171e-05
*RES
1 *76:X *39:10 16.55 
2 *39:10 *39:12 0.428571 
3 *39:12 *62:A1 21.2107 
4 *39:12 *51:A 9.3 
5 *39:10 *39:36 2.19643 
6 *39:36 *39:40 9.48214 
7 *39:40 *46:B 13.8 
8 *39:40 *63:A_N 19.4429 
9 *39:36 *52:A 9.83571 
*END

*D_NET *40 0.00620894
*CONN
*I *77:A I *D sky130_fd_sc_hd__buf_1
*I *49:A1 I *D sky130_fd_sc_hd__o21ai_1
*I *48:A1 I *D sky130_fd_sc_hd__a21oi_1
*I *56:A1 I *D sky130_fd_sc_hd__a21o_1
*I *57:A I *D sky130_fd_sc_hd__nand3_1
*I *62:A2 I *D sky130_fd_sc_hd__o31ai_1
*I *50:A I *D sky130_fd_sc_hd__xor2_1
*I *67:Q O *D sky130_fd_sc_hd__dfxtp_1
*CAP
1 *77:A 7.88153e-05
2 *49:A1 0.000424972
3 *48:A1 0
4 *56:A1 0
5 *57:A 3.83508e-05
6 *62:A2 0.0002336
7 *50:A 0
8 *67:Q 0
9 *40:32 0.000562897
10 *40:24 0.000603527
11 *40:16 0.000580994
12 *40:10 0.000464387
13 *40:8 0.000640949
14 *40:4 0.000175519
15 *57:A *41:45 1.40306e-05
16 *57:A *41:62 1.15281e-05
17 *62:A2 *50:B 0.000236926
18 *62:A2 *41:19 2.6447e-05
19 *40:10 *42:39 0
20 *40:16 *57:C 0
21 *40:16 *78:A 0.000260954
22 *40:16 *41:62 5.52302e-05
23 *40:16 *42:14 6.21279e-05
24 *40:16 *42:39 0
25 *40:24 *57:C 0.000423759
26 *40:24 *41:62 3.61629e-06
27 *40:32 *50:B 3.51442e-05
28 *40:32 *41:45 0
29 counter[0] *40:10 0
30 counter[1] *40:16 0
31 *48:A2 *40:8 0
32 *49:B1 *49:A1 0.00064292
33 *49:B1 *40:10 4.81157e-05
34 *52:A *40:32 1.74352e-05
35 *52:B *57:A 9.7049e-06
36 *61:A1 *49:A1 3.48001e-05
37 *61:B1 *40:10 0
38 *62:A1 *62:A2 3.93247e-05
39 *66:A1 *49:A1 0
40 *66:B1 *49:A1 0
41 *16:8 *49:A1 3.4855e-05
42 *21:18 *62:A2 0
43 *30:16 *62:A2 1.45782e-05
44 *36:10 *49:A1 2.15245e-05
45 *36:10 *40:8 0
46 *39:10 *62:A2 0
47 *39:10 *40:32 0.000308417
48 *39:36 *57:A 5.7661e-06
49 *39:36 *40:32 9.77274e-05
*RES
1 *67:Q *40:4 9.3 
2 *40:4 *40:8 6.26786 
3 *40:8 *40:10 2.55357 
4 *40:10 *40:16 12.4821 
5 *40:16 *40:24 15.2857 
6 *40:24 *40:32 12.8571 
7 *40:32 *50:A 13.8 
8 *40:32 *62:A2 19.9339 
9 *40:24 *57:A 11.1036 
10 *40:16 *56:A1 9.3 
11 *40:10 *48:A1 13.8 
12 *40:8 *49:A1 25.2464 
13 *40:4 *77:A 10.8714 
*END

*D_NET *41 0.00483643
*CONN
*I *78:A I *D sky130_fd_sc_hd__buf_1
*I *56:A2 I *D sky130_fd_sc_hd__a21o_1
*I *57:B I *D sky130_fd_sc_hd__nand3_1
*I *62:A3 I *D sky130_fd_sc_hd__o31ai_1
*I *54:A1 I *D sky130_fd_sc_hd__a21o_1
*I *50:B I *D sky130_fd_sc_hd__xor2_1
*I *68:Q O *D sky130_fd_sc_hd__dfxtp_1
*CAP
1 *78:A 0.000155017
2 *56:A2 1.49469e-05
3 *57:B 6.4341e-05
4 *62:A3 0
5 *54:A1 0.000262823
6 *50:B 0.000126575
7 *68:Q 0
8 *41:62 0.00035668
9 *41:45 0.000317741
10 *41:23 0.000314807
11 *41:19 0.000185591
12 *41:4 0.000193497
13 *56:A2 *42:22 1.44193e-05
14 *57:B *57:C 0
15 *78:A *42:14 4.76227e-05
16 *78:A *42:22 0.000337704
17 *41:62 *57:C 7.64599e-05
18 *41:62 *42:22 7.77751e-05
19 *52:A *41:45 5.39629e-06
20 *52:B *50:B 4.0342e-06
21 *52:B *41:19 4.40008e-05
22 *53:B *57:B 4.58096e-05
23 *57:A *41:45 1.40306e-05
24 *57:A *41:62 1.15281e-05
25 *58:A *41:62 5.71472e-05
26 *58:B *41:62 0.000184655
27 *59:B *41:62 1.95646e-05
28 *62:A1 *50:B 0
29 *62:A1 *41:19 5.52238e-05
30 *62:A1 *41:23 0
31 *62:A2 *50:B 0.000236926
32 *62:A2 *41:19 2.6447e-05
33 *62:B1 *41:23 3.57366e-05
34 *62:B1 *41:45 0.000137983
35 *62:B1 *41:62 5.33005e-05
36 *63:A_N *54:A1 0.000121217
37 *66:B1 *54:A1 9.54798e-06
38 *69:D *41:62 0
39 *71:A *54:A1 1.12577e-05
40 *17:10 *54:A1 0.00015134
41 *17:32 *54:A1 0.000198226
42 *18:20 *54:A1 0.000152575
43 *20:8 *50:B 1.72894e-05
44 *21:18 *54:A1 3.34366e-05
45 *21:18 *41:19 1.92789e-05
46 *21:18 *41:23 1.24368e-05
47 *21:18 *41:45 8.43535e-06
48 *26:10 *57:B 8.32171e-05
49 *30:16 *54:A1 8.32171e-05
50 *30:16 *41:19 0
51 *39:10 *50:B 0
52 *39:36 *41:45 0
53 *39:40 *54:A1 8.43858e-05
54 *39:40 *57:B 1.78447e-05
55 *40:16 *78:A 0.000260954
56 *40:16 *41:62 5.52302e-05
57 *40:24 *41:62 3.61629e-06
58 *40:32 *50:B 3.51442e-05
59 *40:32 *41:45 0
*RES
1 *68:Q *41:4 9.3 
2 *41:4 *50:B 22.0143 
3 *41:4 *41:19 2.17857 
4 *41:19 *41:23 1.26786 
5 *41:23 *54:A1 26.675 
6 *41:23 *62:A3 9.3 
7 *41:19 *41:45 1.76786 
8 *41:45 *57:B 19.9429 
9 *41:45 *41:62 6.01786 
10 *41:62 *56:A2 9.72857 
11 *41:62 *78:A 14.3714 
*END

*D_NET *42 0.00442658
*CONN
*I *79:A I *D sky130_fd_sc_hd__buf_1
*I *56:B1 I *D sky130_fd_sc_hd__a21o_1
*I *60:A1 I *D sky130_fd_sc_hd__a21oi_1
*I *63:B I *D sky130_fd_sc_hd__nand2b_1
*I *57:C I *D sky130_fd_sc_hd__nand3_1
*I *69:Q O *D sky130_fd_sc_hd__dfxtp_1
*CAP
1 *79:A 0
2 *56:B1 0
3 *60:A1 9.60313e-05
4 *63:B 0.00029834
5 *57:C 0.000173191
6 *69:Q 0.000152694
7 *42:39 0.000632032
8 *42:24 0.000410852
9 *42:22 0.000201892
10 *42:14 0.000354587
11 counter[1] *42:14 0
12 *45:A *63:B 0.000172941
13 *46:A *63:B 1.76039e-05
14 *48:B1 *60:A1 0.000111383
15 *53:A *42:39 0
16 *56:A2 *42:22 1.44193e-05
17 *57:B *57:C 0
18 *58:B *42:22 0
19 *61:A1 *63:B 0
20 *61:A2 *42:39 0
21 *61:B1 *42:39 0.000189888
22 *64:A3 *63:B 3.95407e-06
23 *65:C *63:B 6.66256e-05
24 *65:D *63:B 5.33005e-05
25 *69:CLK *63:B 0
26 *69:D *60:A1 4.52037e-07
27 *69:D *63:B 0
28 *69:D *42:22 0
29 *72:A *63:B 2.92588e-05
30 *78:A *42:14 4.76227e-05
31 *78:A *42:22 0.000337704
32 *15:38 *63:B 0.000152996
33 *17:16 *60:A1 6.54721e-05
34 *17:16 *63:B 0.000203218
35 *26:10 *57:C 0
36 *40:10 *42:39 0
37 *40:16 *57:C 0
38 *40:16 *42:14 6.21279e-05
39 *40:16 *42:39 0
40 *40:24 *57:C 0.000423759
41 *41:62 *57:C 7.64599e-05
42 *41:62 *42:22 7.77751e-05
*RES
1 *69:Q *42:14 21.7643 
2 *42:14 *42:22 5.58929 
3 *42:22 *42:24 4.5 
4 *42:24 *57:C 19.1571 
5 *42:24 *42:39 9.17857 
6 *42:39 *63:B 25.9518 
7 *42:39 *60:A1 12.0321 
8 *42:22 *56:B1 9.3 
9 *42:14 *79:A 9.3 
*END

*D_NET *43 0.00342007
*CONN
*I *80:A I *D sky130_fd_sc_hd__buf_1
*I *64:B1 I *D sky130_fd_sc_hd__a31o_1
*I *65:B I *D sky130_fd_sc_hd__nand4_1
*I *70:Q O *D sky130_fd_sc_hd__dfxtp_1
*CAP
1 *80:A 0.000434468
2 *64:B1 6.60627e-05
3 *65:B 0.000527178
4 *70:Q 0
5 *43:8 0.000745125
6 *43:6 0.000586352
7 *45:A *65:B 9.05964e-05
8 *54:B1 *65:B 9.30603e-06
9 *61:A1 *65:B 3.06878e-06
10 *64:A1 *64:B1 5.71472e-05
11 *64:A3 *64:B1 8.07313e-05
12 *65:C *65:B 0.000350399
13 *66:A3 *65:B 0.000104691
14 *66:B1 *43:8 7.69927e-05
15 *70:D *80:A 0
16 *17:32 *65:B 1.47089e-05
17 *17:32 *43:8 1.89507e-06
18 *18:8 *64:B1 0.000271345
19 *18:20 *65:B 0
20 *30:16 *65:B 0
21 *37:35 *64:B1 0
*RES
1 *70:Q *43:6 13.8 
2 *43:6 *43:8 3.16071 
3 *43:8 *65:B 24.6377 
4 *43:8 *64:B1 16.3893 
5 *43:6 *80:A 22.0321 
*END
