*SPEF "ieee 1481-1999"
*DESIGN "counter_dut"
*DATE "11:30:41 Wednesday December 04, 2024"
*VENDOR "The OpenROAD Project"
*PROGRAM "OpenROAD"
*VERSION "edf00dff99f6c40d67a30c0e22a8191c5d2ed9d6"
*DESIGN_FLOW "NAME_SCOPE LOCAL" "PIN_CAP NONE"
*DIVIDER /
*DELIMITER :
*BUS_DELIMITER []
*T_UNIT 1 NS
*C_UNIT 1 PF
*R_UNIT 1 OHM
*L_UNIT 1 HENRY

*NAME_MAP
*3 clk
*4 counter[0]
*5 counter[1]
*6 counter[2]
*7 counter[3]
*8 enable
*9 reset
*10 up_down
*11 _00_
*12 _01_
*13 _02_
*14 _03_
*15 _04_
*16 _05_
*17 _06_
*18 _07_
*19 _08_
*20 _09_
*21 _10_
*22 _11_
*23 _12_
*24 _13_
*25 _14_
*26 _15_
*27 _16_
*28 _17_
*29 _18_
*30 _19_
*31 _20_
*32 _21_
*33 _22_
*34 clknet_0_clk
*35 clknet_1_0__leaf_clk
*36 clknet_1_1__leaf_clk
*37 net1
*38 net10
*39 net11
*40 net2
*41 net3
*42 net4
*43 net5
*44 net6
*45 net7
*46 net8
*47 net9
*48 FILLER_0_15
*49 FILLER_0_27
*50 FILLER_0_29
*51 FILLER_0_3
*52 FILLER_1_16
*53 FILLER_1_3
*54 FILLER_2_18
*55 FILLER_3_3
*56 FILLER_4_16
*57 FILLER_4_23
*58 FILLER_4_27
*59 FILLER_4_3
*60 FILLER_5_3
*61 FILLER_6_27
*62 FILLER_6_29
*63 FILLER_6_40
*64 FILLER_7_10
*65 FILLER_7_22
*66 PHY_EDGE_ROW_0_Left_8
*67 PHY_EDGE_ROW_0_Right_0
*68 PHY_EDGE_ROW_1_Left_9
*69 PHY_EDGE_ROW_1_Right_1
*70 PHY_EDGE_ROW_2_Left_10
*71 PHY_EDGE_ROW_2_Right_2
*72 PHY_EDGE_ROW_3_Left_11
*73 PHY_EDGE_ROW_3_Right_3
*74 PHY_EDGE_ROW_4_Left_12
*75 PHY_EDGE_ROW_4_Right_4
*76 PHY_EDGE_ROW_5_Left_13
*77 PHY_EDGE_ROW_5_Right_5
*78 PHY_EDGE_ROW_6_Left_14
*79 PHY_EDGE_ROW_6_Right_6
*80 PHY_EDGE_ROW_7_Left_15
*81 PHY_EDGE_ROW_7_Right_7
*82 TAP_TAPCELL_ROW_0_16
*83 TAP_TAPCELL_ROW_2_17
*84 TAP_TAPCELL_ROW_4_18
*85 TAP_TAPCELL_ROW_6_19
*86 TAP_TAPCELL_ROW_7_20
*87 _23_
*88 _24_
*89 _25_
*90 _26_
*91 _27_
*92 _28_
*93 _29_
*94 _30_
*95 _31_
*96 _32_
*97 _33_
*98 _34_
*99 _35_
*100 _36_
*101 _37_
*102 _38_
*103 _39_
*104 _40_
*105 _41_
*106 _42_
*107 _43_
*108 _44_
*109 _45_
*110 _46_
*111 _47_
*112 _48_
*113 _49_
*114 clkbuf_0_clk
*115 clkbuf_1_0__f_clk
*116 clkbuf_1_1__f_clk
*117 hold1
*118 hold2
*119 hold3
*120 hold4
*121 input1
*122 input2
*123 input3
*124 output4
*125 output5
*126 output6
*127 output7

*PORTS
clk I
counter[0] O
counter[1] O
counter[2] O
counter[3] O
enable I
reset I
up_down I

*D_NET *3 0.00266517
*CONN
*P clk I
*I *114:A I *D sky130_fd_sc_hd__clkbuf_16
*CAP
1 clk 0.00117575
2 *114:A 0.00117575
3 *114:A *103:A2 5.53549e-06
4 *114:A *109:B1 0
5 *114:A *111:CLK 0.000127543
6 *114:A *115:A 0.000117559
7 *114:A *121:A 3.45293e-05
8 *114:A *122:A 0
9 *114:A *123:A 2.85068e-05
10 *114:A *17:36 0
*RES
1 clk *114:A 7.6367 
*END

*D_NET *4 0.0011099
*CONN
*P counter[0] O
*I *124:X O *D sky130_fd_sc_hd__buf_2
*CAP
1 counter[0] 0.000374753
2 *124:X 0.000374753
3 counter[0] counter[1] 0.000234703
4 counter[0] counter[2] 0
5 counter[0] *42:14 0.000125689
*RES
1 *124:X counter[0] 8.98503 
*END

*D_NET *5 0.0014524
*CONN
*P counter[1] O
*I *125:X O *D sky130_fd_sc_hd__buf_2
*CAP
1 counter[1] 0.00038479
2 *125:X 0.00038479
3 counter[1] counter[2] 9.08308e-05
4 counter[1] *125:A 0.00013818
5 counter[1] *42:14 0.000219109
6 counter[0] counter[1] 0.000234703
*RES
1 *125:X counter[1] 10.9068 
*END

*D_NET *6 0.00132505
*CONN
*P counter[2] O
*I *126:X O *D sky130_fd_sc_hd__buf_2
*CAP
1 counter[2] 0.000494929
2 *126:X 0.000494929
3 counter[2] *125:A 0.000244362
4 counter[2] *44:38 0
5 counter[0] counter[2] 0
6 counter[1] counter[2] 9.08308e-05
*RES
1 *126:X counter[2] 8.87657 
*END

*D_NET *7 0.000680351
*CONN
*P counter[3] O
*I *127:X O *D sky130_fd_sc_hd__buf_2
*CAP
1 counter[3] 0.000328931
2 *127:X 0.000328931
3 counter[3] *122:A 2.24901e-05
*RES
1 *127:X counter[3] 7.4343 
*END

*D_NET *8 0.00114506
*CONN
*P enable I
*I *121:A I *D sky130_fd_sc_hd__buf_1
*CAP
1 enable 0.000428269
2 *121:A 0.000428269
3 *121:A *89:A 0
4 *121:A *105:A2 0
5 *121:A *122:A 3.45293e-05
6 *121:A *123:A 0.000219462
7 *121:A *37:10 0
8 *121:A *41:12 0
9 *114:A *121:A 3.45293e-05
*RES
1 enable *121:A 11.2304 
*END

*D_NET *9 0.00113573
*CONN
*P reset I
*I *122:A I *D sky130_fd_sc_hd__buf_1
*CAP
1 reset 0.000402537
2 *122:A 0.000402537
3 *122:A *127:A 0.000141599
4 *122:A *45:14 0.00013204
5 counter[3] *122:A 2.24901e-05
6 *114:A *122:A 0
7 *121:A *122:A 3.45293e-05
*RES
1 reset *122:A 7.88483 
*END

*D_NET *10 0.000857107
*CONN
*P up_down I
*I *123:A I *D sky130_fd_sc_hd__buf_1
*CAP
1 up_down 0.000304569
2 *123:A 0.000304569
3 *114:A *123:A 2.85068e-05
4 *121:A *123:A 0.000219462
*RES
1 up_down *123:A 8.2293 
*END

*D_NET *11 0.000317749
*CONN
*I *110:D I *D sky130_fd_sc_hd__dfxtp_1
*I *92:Y O *D sky130_fd_sc_hd__o21ai_1
*CAP
1 *110:D 8.73714e-05
2 *92:Y 8.73714e-05
3 *110:D *91:A2 3.49357e-05
4 *110:D *91:B1 7.01359e-05
5 *110:D *92:A2 3.79351e-05
*RES
1 *92:Y *110:D 9.01875 
*END

*D_NET *12 0.00197711
*CONN
*I *111:D I *D sky130_fd_sc_hd__dfxtp_1
*I *98:X O *D sky130_fd_sc_hd__a31o_1
*CAP
1 *111:D 0.000614893
2 *98:X 0.000614893
3 *111:D *91:A2 3.64998e-06
4 *111:D *92:A2 9.14049e-05
5 *111:D *98:A1 0.000158965
6 *111:D *98:B1 4.66742e-05
7 *111:D *104:A1 0.00034058
8 *111:D *111:CLK 3.76596e-05
9 *111:D *18:14 7.68414e-06
10 *111:D *18:29 4.56167e-05
11 *111:D *42:24 1.50866e-05
*RES
1 *98:X *111:D 17.2987 
*END

*D_NET *13 0.00119287
*CONN
*I *112:D I *D sky130_fd_sc_hd__dfxtp_1
*I *104:Y O *D sky130_fd_sc_hd__o21ai_1
*CAP
1 *112:D 0.000430099
2 *104:Y 0.000430099
3 *112:D *99:B1 2.99261e-05
4 *112:D *104:A1 2.47262e-05
5 *112:D *104:B1 1.7386e-05
6 *112:D *111:CLK 3.00381e-05
7 *112:D *112:CLK 7.71334e-05
8 *112:D *42:24 0.000153465
9 *112:D *43:26 0
*RES
1 *104:Y *112:D 13.2 
*END

*D_NET *14 0.000731985
*CONN
*I *120:A I *D sky130_fd_sc_hd__dlygate4sd3_1
*I *109:X O *D sky130_fd_sc_hd__a31o_1
*CAP
1 *120:A 0.000230643
2 *109:X 0.000230643
3 *120:A *97:A1 8.53113e-06
4 *120:A *98:A2 1.91597e-05
5 *120:A *116:A 4.40643e-05
6 *120:A *18:14 0.000198945
7 *120:A *40:12 0
*RES
1 *109:X *120:A 10.755 
*END

*D_NET *15 0.00304904
*CONN
*I *88:B I *D sky130_fd_sc_hd__nand2_1
*I *98:A2 I *D sky130_fd_sc_hd__a31o_1
*I *109:A1 I *D sky130_fd_sc_hd__a31o_1
*I *89:A I *D sky130_fd_sc_hd__nor2_1
*I *87:Y O *D sky130_fd_sc_hd__inv_2
*CAP
1 *88:B 7.6482e-05
2 *98:A2 0.000131572
3 *109:A1 0
4 *89:A 0.000309556
5 *87:Y 0
6 *15:14 0.00066492
7 *15:4 0.000300274
8 *88:B *88:A 0.000122331
9 *88:B *107:A3 0
10 *88:B *37:37 0
11 *89:A *107:B1 0
12 *89:A *108:B 0.000102052
13 *89:A *109:A3 0.000322348
14 *89:A *119:A 3.74161e-05
15 *89:A *37:10 0.000161419
16 *89:A *45:14 0.000163199
17 *98:A2 *98:A1 0.000120373
18 *98:A2 *109:A3 4.62669e-05
19 *98:A2 *18:14 0.0001249
20 *15:14 *87:A 2.75229e-05
21 *15:14 *88:A 3.55325e-05
22 *15:14 *98:A1 2.34345e-05
23 *15:14 *107:A3 9.53428e-06
24 *15:14 *107:B1 0
25 *15:14 *109:A2 0.000162784
26 *15:14 *18:14 4.82919e-05
27 *15:14 *37:25 0
28 *15:14 *37:33 2.66586e-05
29 *15:14 *37:37 1.30169e-05
30 *120:A *98:A2 1.91597e-05
31 *121:A *89:A 0
*RES
1 *87:Y *15:4 1.6 
2 *15:4 *15:14 8.425 
3 *15:14 *89:A 13.43 
4 *15:14 *109:A1 1.6 
5 *15:14 *98:A2 4.825 
6 *15:4 *88:B 3.355 
*END

*D_NET *16 0.00291059
*CONN
*I *92:A2 I *D sky130_fd_sc_hd__o21ai_1
*I *104:A1 I *D sky130_fd_sc_hd__o21ai_1
*I *88:Y O *D sky130_fd_sc_hd__nand2_1
*CAP
1 *92:A2 0.000209643
2 *104:A1 0.000471422
3 *88:Y 0.000140247
4 *16:8 0.000821312
5 *92:A2 *91:B1 1.96252e-05
6 *92:A2 *111:CLK 0.000186366
7 *104:A1 *104:B1 6.68538e-05
8 *104:A1 *111:CLK 0.000355133
9 *104:A1 *21:8 3.64998e-06
10 *104:A1 *42:24 2.65814e-06
11 *16:8 *88:A 1.83756e-05
12 *16:8 *34:8 0.000120655
13 *110:D *92:A2 3.79351e-05
14 *111:D *92:A2 9.14049e-05
15 *111:D *104:A1 0.00034058
16 *112:D *104:A1 2.47262e-05
*RES
1 *88:Y *16:8 5.775 
2 *16:8 *104:A1 12.51 
3 *16:8 *92:A2 8.175 
*END

*D_NET *17 0.00439531
*CONN
*I *91:B1 I *D sky130_fd_sc_hd__a21oi_1
*I *97:B1 I *D sky130_fd_sc_hd__a21o_1
*I *109:B1 I *D sky130_fd_sc_hd__a31o_1
*I *103:B1 I *D sky130_fd_sc_hd__a21oi_1
*I *89:Y O *D sky130_fd_sc_hd__nor2_1
*CAP
1 *91:B1 0.000365815
2 *97:B1 6.8879e-06
3 *109:B1 0.000370345
4 *103:B1 8.80971e-05
5 *89:Y 0.000344032
6 *17:36 0.000545282
7 *17:21 0.000733128
8 *17:8 0.000622332
9 *91:B1 *91:A2 3.97246e-05
10 *97:B1 *111:CLK 1.88602e-05
11 *97:B1 *116:A 1.88602e-05
12 *103:B1 *96:A 0
13 *103:B1 *97:A1 0.000159957
14 *103:B1 *104:A2 4.18603e-06
15 *109:B1 *45:14 0
16 *17:8 *89:B 2.75145e-05
17 *17:8 *105:A2 2.91399e-05
18 *17:8 *105:B1 0.000124895
19 *17:8 *106:A_N 0.00011025
20 *17:8 *106:B 2.08258e-07
21 *17:8 *44:38 7.49327e-05
22 *17:8 *44:42 0.000234685
23 *17:21 *96:A 0
24 *17:21 *97:A1 0.000229321
25 *17:21 *98:A3 0.000157099
26 *17:21 *18:14 0
27 *92:A2 *91:B1 1.96252e-05
28 *110:D *91:B1 7.01359e-05
29 *114:A *109:B1 0
30 *114:A *17:36 0
*RES
1 *89:Y *17:8 9.915 
2 *17:8 *103:B1 5.49 
3 *17:8 *17:21 5.3225 
4 *17:21 *109:B1 4.95317 
5 *17:21 *17:36 0.329333 
6 *17:36 *97:B1 4.3325 
7 *17:36 *91:B1 6.05337 
*END

*D_NET *18 0.00344774
*CONN
*I *91:A2 I *D sky130_fd_sc_hd__a21oi_1
*I *97:A2 I *D sky130_fd_sc_hd__a21o_1
*I *103:A2 I *D sky130_fd_sc_hd__a21oi_1
*I *90:Y O *D sky130_fd_sc_hd__nor2_1
*CAP
1 *91:A2 0.000231102
2 *97:A2 0
3 *103:A2 0.000177169
4 *90:Y 0.000177855
5 *18:29 0.000329062
6 *18:14 0.000452984
7 *91:A2 *110:CLK 9.41177e-05
8 *91:A2 *42:77 0
9 *103:A2 *97:A1 0.000421452
10 *103:A2 *103:A1 0.000139231
11 *103:A2 *111:CLK 7.95329e-05
12 *103:A2 *115:A 0.000208805
13 *103:A2 *116:A 0.000147512
14 *18:14 *97:A1 4.66108e-05
15 *18:14 *98:A1 1.34503e-05
16 *18:14 *98:A3 6.02202e-05
17 *18:14 *98:B1 4.66742e-05
18 *18:14 *40:12 0.000157179
19 *18:29 *97:A1 0.000155497
20 *91:B1 *91:A2 3.97246e-05
21 *98:A2 *18:14 0.0001249
22 *110:D *91:A2 3.49357e-05
23 *111:D *91:A2 3.64998e-06
24 *111:D *18:14 7.68414e-06
25 *111:D *18:29 4.56167e-05
26 *114:A *103:A2 5.53549e-06
27 *120:A *18:14 0.000198945
28 *15:14 *18:14 4.82919e-05
29 *17:21 *18:14 0
*RES
1 *90:Y *18:14 10.46 
2 *18:14 *103:A2 12.335 
3 *18:14 *18:29 2.19 
4 *18:29 *97:A2 1.6 
5 *18:29 *91:A2 10.01 
*END

*D_NET *19 0.000117059
*CONN
*I *92:B1 I *D sky130_fd_sc_hd__o21ai_1
*I *91:Y O *D sky130_fd_sc_hd__a21oi_1
*CAP
1 *92:B1 4.41806e-05
2 *91:Y 4.41806e-05
3 *92:B1 *92:A1 2.86975e-05
*RES
1 *91:Y *92:B1 4.01 
*END

*D_NET *20 0.000410377
*CONN
*I *95:B I *D sky130_fd_sc_hd__nand2_1
*I *94:B I *D sky130_fd_sc_hd__or2_1
*I *93:X O *D sky130_fd_sc_hd__xor2_1
*CAP
1 *95:B 0
2 *94:B 4.61996e-05
3 *93:X 4.06093e-05
4 *20:8 8.68089e-05
5 *94:B *95:A 0.000139245
6 *94:B *105:A3 4.18603e-06
7 *94:B *43:37 5.92849e-05
8 *20:8 *101:A 0
9 *20:8 *42:32 0
10 *20:8 *43:26 3.40435e-05
*RES
1 *93:X *20:8 2.41 
2 *20:8 *94:B 7.235 
3 *20:8 *95:B 1.6 
*END

*D_NET *21 0.00131442
*CONN
*I *96:A I *D sky130_fd_sc_hd__nand2_1
*I *102:A I *D sky130_fd_sc_hd__xnor2_1
*I *94:X O *D sky130_fd_sc_hd__or2_1
*CAP
1 *96:A 0.000140699
2 *102:A 9.92818e-05
3 *94:X 0.000110894
4 *21:8 0.000350875
5 *96:A *96:B 0.000134744
6 *96:A *104:A2 5.4003e-05
7 *102:A *96:B 3.67779e-05
8 *102:A *101:A 0.000163204
9 *102:A *101:B 0
10 *102:A *102:B 0.00012657
11 *102:A *104:A2 7.06865e-05
12 *102:A *43:26 2.30292e-05
13 *103:B1 *96:A 0
14 *104:A1 *21:8 3.64998e-06
15 *17:21 *96:A 0
*RES
1 *94:X *21:8 4.74 
2 *21:8 *102:A 6.465 
3 *21:8 *96:A 6.51 
*END

*D_NET *22 0.000819026
*CONN
*I *96:B I *D sky130_fd_sc_hd__nand2_1
*I *95:Y O *D sky130_fd_sc_hd__nand2_1
*CAP
1 *96:B 0.000215305
2 *95:Y 0.000215305
3 *96:B *95:A 7.00889e-06
4 *96:B *100:C 0.000110659
5 *96:B *101:B 6.43008e-05
6 *96:B *102:B 4.9253e-06
7 *96:B *105:B1 1.14559e-05
8 *96:B *43:26 1.85451e-05
9 *96:A *96:B 0.000134744
10 *102:A *96:B 3.67779e-05
*RES
1 *95:Y *96:B 12.015 
*END

*D_NET *23 0.000716873
*CONN
*I *98:A3 I *D sky130_fd_sc_hd__a31o_1
*I *96:Y O *D sky130_fd_sc_hd__nand2_1
*CAP
1 *98:A3 0.00021773
2 *96:Y 0.00021773
3 *98:A3 *31:10 0
4 *98:A3 *40:12 2.46007e-05
5 *98:A3 *44:38 4.9253e-06
6 *98:A3 *44:42 3.45679e-05
7 *17:21 *98:A3 0.000157099
8 *18:14 *98:A3 6.02202e-05
*RES
1 *96:Y *98:A3 11.415 
*END

*D_NET *24 0.000150573
*CONN
*I *98:B1 I *D sky130_fd_sc_hd__a31o_1
*I *97:X O *D sky130_fd_sc_hd__a21o_1
*CAP
1 *98:B1 2.86122e-05
2 *97:X 2.86122e-05
3 *111:D *98:B1 4.66742e-05
4 *18:14 *98:B1 4.66742e-05
*RES
1 *97:X *98:B1 3.995 
*END

*D_NET *25 0.000628411
*CONN
*I *101:A I *D sky130_fd_sc_hd__nand2_1
*I *99:X O *D sky130_fd_sc_hd__a21o_1
*CAP
1 *101:A 0.00013359
2 *99:X 0.00013359
3 *101:A *102:B 2.30292e-05
4 *101:A *104:A2 4.82919e-05
5 *101:A *42:32 2.66586e-05
6 *101:A *43:18 8.65961e-05
7 *101:A *43:26 1.34503e-05
8 *102:A *101:A 0.000163204
9 *20:8 *101:A 0
*RES
1 *99:X *101:A 6.425 
*END

*D_NET *26 0.0015622
*CONN
*I *101:B I *D sky130_fd_sc_hd__nand2_1
*I *105:B1 I *D sky130_fd_sc_hd__o31ai_1
*I *100:Y O *D sky130_fd_sc_hd__nand3_1
*CAP
1 *101:B 6.6669e-05
2 *105:B1 0.000176604
3 *100:Y 0.000148578
4 *26:8 0.000391851
5 *101:B *95:A 5.92191e-05
6 *101:B *43:26 3.00381e-05
7 *105:B1 *95:A 2.92496e-05
8 *105:B1 *100:C 0.000183738
9 *105:B1 *105:A3 0
10 *105:B1 *106:A_N 8.2608e-05
11 *105:B1 *41:12 0
12 *105:B1 *41:43 7.30547e-05
13 *105:B1 *44:42 0
14 *26:8 *94:A 4.66108e-05
15 *26:8 *100:C 6.00027e-05
16 *26:8 *41:43 1.33293e-05
17 *96:B *101:B 6.43008e-05
18 *96:B *105:B1 1.14559e-05
19 *102:A *101:B 0
20 *17:8 *105:B1 0.000124895
*RES
1 *100:Y *26:8 5.43 
2 *26:8 *105:B1 8.205 
3 *26:8 *101:B 5.43 
*END

*D_NET *27 0.000419937
*CONN
*I *102:B I *D sky130_fd_sc_hd__xnor2_1
*I *101:Y O *D sky130_fd_sc_hd__nand2_1
*CAP
1 *102:B 3.11167e-05
2 *101:Y 3.11167e-05
3 *102:B *43:26 0.000203178
4 *96:B *102:B 4.9253e-06
5 *101:A *102:B 2.30292e-05
6 *102:A *102:B 0.00012657
*RES
1 *101:Y *102:B 5.03 
*END

*D_NET *28 0.00037002
*CONN
*I *104:A2 I *D sky130_fd_sc_hd__o21ai_1
*I *102:Y O *D sky130_fd_sc_hd__xnor2_1
*CAP
1 *104:A2 9.64263e-05
2 *102:Y 9.64263e-05
3 *104:A2 *97:A1 0
4 *96:A *104:A2 5.4003e-05
5 *101:A *104:A2 4.82919e-05
6 *102:A *104:A2 7.06865e-05
7 *103:B1 *104:A2 4.18603e-06
*RES
1 *102:Y *104:A2 9.03 
*END

*D_NET *29 0.000133626
*CONN
*I *104:B1 I *D sky130_fd_sc_hd__o21ai_1
*I *103:Y O *D sky130_fd_sc_hd__a21oi_1
*CAP
1 *104:B1 2.46933e-05
2 *103:Y 2.46933e-05
3 *104:A1 *104:B1 6.68538e-05
4 *112:D *104:B1 1.7386e-05
*RES
1 *103:Y *104:B1 4.01 
*END

*D_NET *30 0.000815758
*CONN
*I *107:A2 I *D sky130_fd_sc_hd__a31o_1
*I *108:C I *D sky130_fd_sc_hd__nand4_1
*I *105:Y O *D sky130_fd_sc_hd__o31ai_1
*CAP
1 *107:A2 8.84563e-05
2 *108:C 0.000142565
3 *105:Y 0
4 *30:4 0.000231021
5 *107:A2 *106:A_N 3.83041e-05
6 *107:A2 *108:D 1.12643e-05
7 *107:A2 *31:10 9.14049e-05
8 *107:A2 *37:25 9.50342e-06
9 *107:A2 *37:33 5.16418e-05
10 *108:C *89:B 5.83121e-06
11 *108:C *106:A_N 0.000101259
12 *108:C *108:B 9.50342e-06
13 *108:C *37:10 3.50033e-05
14 *108:C *37:33 0
*RES
1 *105:Y *30:4 1.6 
2 *30:4 *108:C 7.955 
3 *30:4 *107:A2 7.53875 
*END

*D_NET *31 0.000730548
*CONN
*I *107:A3 I *D sky130_fd_sc_hd__a31o_1
*I *108:D I *D sky130_fd_sc_hd__nand4_1
*I *106:Y O *D sky130_fd_sc_hd__nand2b_1
*CAP
1 *107:A3 4.38379e-05
2 *108:D 0.000112608
3 *106:Y 5.86052e-05
4 *31:10 0.000215051
5 *107:A3 *37:33 3.74161e-05
6 *107:A3 *37:37 1.37328e-05
7 *108:D *37:25 5.47473e-05
8 *108:D *37:33 8.23457e-05
9 *88:B *107:A3 0
10 *98:A3 *31:10 0
11 *107:A2 *108:D 1.12643e-05
12 *107:A2 *31:10 9.14049e-05
13 *15:14 *107:A3 9.53428e-06
*RES
1 *106:Y *31:10 6.725 
2 *31:10 *108:D 3.79 
3 *31:10 *107:A3 3.115 
*END

*D_NET *32 0.000414659
*CONN
*I *109:A2 I *D sky130_fd_sc_hd__a31o_1
*I *107:X O *D sky130_fd_sc_hd__a31o_1
*CAP
1 *109:A2 8.10638e-05
2 *107:X 8.10638e-05
3 *109:A2 *98:A1 7.23602e-05
4 *109:A2 *40:12 1.73877e-05
5 *15:14 *109:A2 0.000162784
*RES
1 *107:X *109:A2 9.03 
*END

*D_NET *33 0.000992823
*CONN
*I *109:A3 I *D sky130_fd_sc_hd__a31o_1
*I *108:Y O *D sky130_fd_sc_hd__nand4_1
*CAP
1 *109:A3 0.000247289
2 *108:Y 0.000247289
3 *109:A3 *98:A1 2.04101e-05
4 *109:A3 *107:B1 3.68682e-05
5 *109:A3 *108:B 7.23533e-05
6 *89:A *109:A3 0.000322348
7 *98:A2 *109:A3 4.62669e-05
*RES
1 *108:Y *109:A3 12.24 
*END

*D_NET *34 0.00261349
*CONN
*I *116:A I *D sky130_fd_sc_hd__clkbuf_16
*I *115:A I *D sky130_fd_sc_hd__clkbuf_16
*I *114:X O *D sky130_fd_sc_hd__clkbuf_16
*CAP
1 *116:A 0.000253393
2 *115:A 8.05476e-05
3 *114:X 0.000480583
4 *34:8 0.000814524
5 *115:A *111:CLK 4.92128e-05
6 *115:A *44:38 3.00381e-05
7 *116:A *97:A1 1.01911e-05
8 *116:A *111:CLK 0.000219164
9 *116:A *113:CLK 1.83847e-05
10 *116:A *40:12 0
11 *97:B1 *116:A 1.88602e-05
12 *103:A2 *115:A 0.000208805
13 *103:A2 *116:A 0.000147512
14 *114:A *115:A 0.000117559
15 *120:A *116:A 4.40643e-05
16 *16:8 *34:8 0.000120655
*RES
1 *114:X *34:8 8.88 
2 *34:8 *115:A 6.45 
3 *34:8 *116:A 9.765 
*END

*D_NET *35 0.002481
*CONN
*I *110:CLK I *D sky130_fd_sc_hd__dfxtp_1
*I *112:CLK I *D sky130_fd_sc_hd__dfxtp_1
*I *115:X O *D sky130_fd_sc_hd__clkbuf_16
*CAP
1 *110:CLK 0.000439125
2 *112:CLK 0.000304538
3 *115:X 0.000107852
4 *35:8 0.000851514
5 *112:CLK *99:A2 3.13354e-05
6 *112:CLK *99:B1 6.25204e-05
7 *112:CLK *43:14 0.000197728
8 *112:CLK *44:38 0.000315139
9 *91:A2 *110:CLK 9.41177e-05
10 *112:D *112:CLK 7.71334e-05
*RES
1 *115:X *35:8 4.74 
2 *35:8 *112:CLK 10.92 
3 *35:8 *110:CLK 9.645 
*END

*D_NET *36 0.00368951
*CONN
*I *111:CLK I *D sky130_fd_sc_hd__dfxtp_1
*I *113:CLK I *D sky130_fd_sc_hd__dfxtp_1
*I *116:X O *D sky130_fd_sc_hd__clkbuf_16
*CAP
1 *111:CLK 0.000331401
2 *113:CLK 0.000444668
3 *116:X 0.000425177
4 *36:6 0.00120125
5 *113:CLK *40:12 0.000165123
6 *92:A2 *111:CLK 0.000186366
7 *97:B1 *111:CLK 1.88602e-05
8 *103:A2 *111:CLK 7.95329e-05
9 *104:A1 *111:CLK 0.000355133
10 *111:D *111:CLK 3.76596e-05
11 *112:D *111:CLK 3.00381e-05
12 *114:A *111:CLK 0.000127543
13 *115:A *111:CLK 4.92128e-05
14 *116:A *111:CLK 0.000219164
15 *116:A *113:CLK 1.83847e-05
*RES
1 *116:X *36:6 6.19 
2 *36:6 *113:CLK 11.225 
3 *36:6 *111:CLK 15.845 
*END

*D_NET *37 0.00337649
*CONN
*I *107:A1 I *D sky130_fd_sc_hd__a31o_1
*I *88:A I *D sky130_fd_sc_hd__nand2_1
*I *90:A I *D sky130_fd_sc_hd__nor2_1
*I *98:A1 I *D sky130_fd_sc_hd__a31o_1
*I *108:A I *D sky130_fd_sc_hd__nand4_1
*I *121:X O *D sky130_fd_sc_hd__buf_1
*CAP
1 *107:A1 0
2 *88:A 0.000191703
3 *90:A 0
4 *98:A1 0.000207028
5 *108:A 3.45073e-05
6 *121:X 0.000122461
7 *37:37 0.000222618
8 *37:33 0.000429294
9 *37:25 0.000424874
10 *37:10 0.000359841
11 *88:A *87:A 4.99619e-05
12 *98:A1 *40:12 7.63125e-05
13 *37:10 *108:B 5.39961e-05
14 *37:10 *41:12 7.91745e-05
15 *37:25 *107:B1 4.44927e-05
16 *37:33 *107:B1 9.50342e-06
17 *37:33 *108:B 0
18 *88:B *88:A 0.000122331
19 *88:B *37:37 0
20 *89:A *37:10 0.000161419
21 *98:A2 *98:A1 0.000120373
22 *107:A2 *37:25 9.50342e-06
23 *107:A2 *37:33 5.16418e-05
24 *107:A3 *37:33 3.74161e-05
25 *107:A3 *37:37 1.37328e-05
26 *108:C *37:10 3.50033e-05
27 *108:C *37:33 0
28 *108:D *37:25 5.47473e-05
29 *108:D *37:33 8.23457e-05
30 *109:A2 *98:A1 7.23602e-05
31 *109:A3 *98:A1 2.04101e-05
32 *111:D *98:A1 0.000158965
33 *121:A *37:10 0
34 *15:14 *88:A 3.55325e-05
35 *15:14 *98:A1 2.34345e-05
36 *15:14 *37:25 0
37 *15:14 *37:33 2.66586e-05
38 *15:14 *37:37 1.30169e-05
39 *16:8 *88:A 1.83756e-05
40 *18:14 *98:A1 1.34503e-05
*RES
1 *121:X *37:10 9.02 
2 *37:10 *108:A 2.05 
3 *37:10 *37:25 5.405 
4 *37:25 *37:33 5.3225 
5 *37:33 *37:37 0.6375 
6 *37:37 *98:A1 10.58 
7 *37:37 *90:A 1.6 
8 *37:33 *88:A 4.9975 
9 *37:25 *107:A1 3.6 
*END

*D_NET *38 0.000474205
*CONN
*I *108:B I *D sky130_fd_sc_hd__nand4_1
*I *119:X O *D sky130_fd_sc_hd__dlygate4sd3_1
*CAP
1 *108:B 0.00011815
2 *119:X 0.00011815
3 *108:B *107:B1 0
4 *89:A *108:B 0.000102052
5 *108:C *108:B 9.50342e-06
6 *109:A3 *108:B 7.23533e-05
7 *37:10 *108:B 5.39961e-05
8 *37:33 *108:B 0
*RES
1 *119:X *108:B 9.795 
*END

*D_NET *39 0.000204751
*CONN
*I *113:D I *D sky130_fd_sc_hd__dfxtp_1
*I *120:X O *D sky130_fd_sc_hd__dlygate4sd3_1
*CAP
1 *113:D 0.000102375
2 *120:X 0.000102375
*RES
1 *120:X *113:D 4.56875 
*END

*D_NET *40 0.00160937
*CONN
*I *87:A I *D sky130_fd_sc_hd__inv_2
*I *90:B I *D sky130_fd_sc_hd__nor2_1
*I *122:X O *D sky130_fd_sc_hd__buf_1
*CAP
1 *87:A 9.78325e-06
2 *90:B 0
3 *122:X 0.000535857
4 *40:12 0.00054564
5 *40:12 *97:A1 0
6 *88:A *87:A 4.99619e-05
7 *98:A1 *40:12 7.63125e-05
8 *98:A3 *40:12 2.46007e-05
9 *109:A2 *40:12 1.73877e-05
10 *113:CLK *40:12 0.000165123
11 *116:A *40:12 0
12 *120:A *40:12 0
13 *15:14 *87:A 2.75229e-05
14 *18:14 *40:12 0.000157179
*RES
1 *122:X *40:12 15.125 
2 *40:12 *90:B 1.6 
3 *40:12 *87:A 2.05 
*END

*D_NET *41 0.00219129
*CONN
*I *94:A I *D sky130_fd_sc_hd__or2_1
*I *95:A I *D sky130_fd_sc_hd__nand2_1
*I *106:A_N I *D sky130_fd_sc_hd__nand2b_1
*I *105:A1 I *D sky130_fd_sc_hd__o31ai_1
*I *89:B I *D sky130_fd_sc_hd__nor2_1
*I *123:X O *D sky130_fd_sc_hd__buf_1
*CAP
1 *94:A 1.36534e-05
2 *95:A 6.39464e-05
3 *106:A_N 0.000166437
4 *105:A1 0
5 *89:B 2.20553e-05
6 *123:X 0
7 *41:43 0.00024892
8 *41:12 0.00029432
9 *41:4 0.000277148
10 *94:A *100:C 4.66108e-05
11 *95:A *43:26 3.00381e-05
12 *106:A_N *106:B 1.12643e-05
13 *106:A_N *44:42 3.07268e-05
14 *41:12 *100:A 5.83121e-06
15 *41:12 *100:C 0
16 *41:12 *105:A2 9.54469e-05
17 *41:43 *100:A 2.16917e-05
18 *41:43 *100:C 5.05437e-05
19 *41:43 *105:A3 0
20 *94:B *95:A 0.000139245
21 *96:B *95:A 7.00889e-06
22 *101:B *95:A 5.92191e-05
23 *105:B1 *95:A 2.92496e-05
24 *105:B1 *106:A_N 8.2608e-05
25 *105:B1 *41:12 0
26 *105:B1 *41:43 7.30547e-05
27 *107:A2 *106:A_N 3.83041e-05
28 *108:C *89:B 5.83121e-06
29 *108:C *106:A_N 0.000101259
30 *121:A *41:12 0
31 *17:8 *89:B 2.75145e-05
32 *17:8 *106:A_N 0.00011025
33 *26:8 *94:A 4.66108e-05
34 *26:8 *41:43 1.33293e-05
35 *37:10 *41:12 7.91745e-05
*RES
1 *123:X *41:4 1.6 
2 *41:4 *41:12 6.34 
3 *41:12 *89:B 2.05 
4 *41:12 *105:A1 1.6 
5 *41:12 *106:A_N 5.98 
6 *41:4 *41:43 5.045 
7 *41:43 *95:A 5.685 
8 *41:43 *94:A 4.05 
*END

*D_NET *42 0.00633257
*CONN
*I *117:A I *D sky130_fd_sc_hd__dlygate4sd3_1
*I *91:A1 I *D sky130_fd_sc_hd__a21oi_1
*I *124:A I *D sky130_fd_sc_hd__buf_2
*I *99:A1 I *D sky130_fd_sc_hd__a21o_1
*I *93:A I *D sky130_fd_sc_hd__xor2_1
*I *105:A2 I *D sky130_fd_sc_hd__o31ai_1
*I *100:A I *D sky130_fd_sc_hd__nand3_1
*I *110:Q O *D sky130_fd_sc_hd__dfxtp_1
*CAP
1 *117:A 3.55506e-05
2 *91:A1 0.000302159
3 *124:A 0
4 *99:A1 0
5 *93:A 0
6 *105:A2 8.62655e-05
7 *100:A 2.42846e-05
8 *110:Q 4.43494e-05
9 *42:77 0.000538415
10 *42:36 0.000201038
11 *42:32 0.000701439
12 *42:24 0.000983365
13 *42:14 0.000738384
14 *42:8 0.000611026
15 *91:A1 *92:A1 1.32545e-05
16 *105:A2 *105:A3 7.44453e-05
17 *42:14 *125:A 1.91597e-05
18 *42:24 *97:A1 0
19 *42:24 *125:A 4.76682e-05
20 *42:24 *43:14 0.000230794
21 *42:32 *99:A2 0
22 *42:32 *99:B1 0.000108162
23 *42:32 *43:18 0.000128416
24 *42:32 *43:26 0.000657213
25 *42:36 *105:A3 1.1561e-05
26 *42:36 *43:37 8.08439e-05
27 counter[0] *42:14 0.000125689
28 counter[1] *42:14 0.000219109
29 *91:A2 *42:77 0
30 *101:A *42:32 2.66586e-05
31 *104:A1 *42:24 2.65814e-06
32 *111:D *42:24 1.50866e-05
33 *112:D *42:24 0.000153465
34 *121:A *105:A2 0
35 *17:8 *105:A2 2.91399e-05
36 *20:8 *42:32 0
37 *41:12 *100:A 5.83121e-06
38 *41:12 *105:A2 9.54469e-05
39 *41:43 *100:A 2.16917e-05
*RES
1 *110:Q *42:8 4.05 
2 *42:8 *42:14 9.2 
3 *42:14 *42:24 10.675 
4 *42:24 *42:32 10.14 
5 *42:32 *42:36 3.89 
6 *42:36 *100:A 4.05 
7 *42:36 *105:A2 5.5125 
8 *42:32 *93:A 1.6 
9 *42:24 *99:A1 1.6 
10 *42:14 *124:A 1.6 
11 *42:8 *42:77 4.94 
12 *42:77 *91:A1 4.81 
13 *42:77 *117:A 2.215 
*END

*D_NET *43 0.0069228
*CONN
*I *125:A I *D sky130_fd_sc_hd__buf_2
*I *99:A2 I *D sky130_fd_sc_hd__a21o_1
*I *97:A1 I *D sky130_fd_sc_hd__a21o_1
*I *105:A3 I *D sky130_fd_sc_hd__o31ai_1
*I *100:B I *D sky130_fd_sc_hd__nand3_1
*I *93:B I *D sky130_fd_sc_hd__xor2_1
*I *111:Q O *D sky130_fd_sc_hd__dfxtp_1
*CAP
1 *125:A 0.000214667
2 *99:A2 2.65393e-05
3 *97:A1 0.000465294
4 *105:A3 8.94752e-05
5 *100:B 0
6 *93:B 0
7 *111:Q 0
8 *43:37 0.00017983
9 *43:26 0.000295723
10 *43:18 0.000859374
11 *43:14 0.000586123
12 *43:4 0.000585538
13 *97:A1 *103:A1 0.000140905
14 *99:A2 *99:B1 5.4155e-06
15 *43:14 *99:B1 2.99981e-06
16 *43:14 *44:38 7.06865e-05
17 *43:18 *99:B1 4.57301e-06
18 counter[1] *125:A 0.00013818
19 counter[2] *125:A 0.000244362
20 *94:B *105:A3 4.18603e-06
21 *94:B *43:37 5.92849e-05
22 *95:A *43:26 3.00381e-05
23 *96:B *43:26 1.85451e-05
24 *101:A *43:18 8.65961e-05
25 *101:A *43:26 1.34503e-05
26 *101:B *43:26 3.00381e-05
27 *102:A *43:26 2.30292e-05
28 *102:B *43:26 0.000203178
29 *103:A2 *97:A1 0.000421452
30 *103:B1 *97:A1 0.000159957
31 *104:A2 *97:A1 0
32 *105:A2 *105:A3 7.44453e-05
33 *105:B1 *105:A3 0
34 *112:CLK *99:A2 3.13354e-05
35 *112:CLK *43:14 0.000197728
36 *112:D *43:26 0
37 *116:A *97:A1 1.01911e-05
38 *120:A *97:A1 8.53113e-06
39 *17:21 *97:A1 0.000229321
40 *18:14 *97:A1 4.66108e-05
41 *18:29 *97:A1 0.000155497
42 *20:8 *43:26 3.40435e-05
43 *40:12 *97:A1 0
44 *41:43 *105:A3 0
45 *42:14 *125:A 1.91597e-05
46 *42:24 *97:A1 0
47 *42:24 *125:A 4.76682e-05
48 *42:24 *43:14 0.000230794
49 *42:32 *99:A2 0
50 *42:32 *43:18 0.000128416
51 *42:32 *43:26 0.000657213
52 *42:36 *105:A3 1.1561e-05
53 *42:36 *43:37 8.08439e-05
*RES
1 *111:Q *43:4 1.6 
2 *43:4 *43:14 9.22 
3 *43:14 *43:18 4.52 
4 *43:18 *43:26 9.11 
5 *43:26 *93:B 1.6 
6 *43:26 *43:37 4.34 
7 *43:37 *100:B 3.6 
8 *43:37 *105:A3 5.49 
9 *43:18 *97:A1 14.25 
10 *43:14 *99:A2 2.215 
11 *43:4 *125:A 10.52 
*END

*D_NET *44 0.00476435
*CONN
*I *118:A I *D sky130_fd_sc_hd__dlygate4sd3_1
*I *100:C I *D sky130_fd_sc_hd__nand3_1
*I *106:B I *D sky130_fd_sc_hd__nand2b_1
*I *126:A I *D sky130_fd_sc_hd__buf_2
*I *99:B1 I *D sky130_fd_sc_hd__a21o_1
*I *112:Q O *D sky130_fd_sc_hd__dfxtp_1
*CAP
1 *118:A 0
2 *100:C 0.0001451
3 *106:B 2.52687e-06
4 *126:A 0.000105825
5 *99:B1 0.000367117
6 *112:Q 0.000239812
7 *44:42 0.000240139
8 *44:38 0.00076229
9 *44:19 0.000775602
10 *44:6 0.000606929
11 *44:38 *103:A1 4.66826e-05
12 counter[2] *44:38 0
13 *94:A *100:C 4.66108e-05
14 *96:B *100:C 0.000110659
15 *98:A3 *44:38 4.9253e-06
16 *98:A3 *44:42 3.45679e-05
17 *99:A2 *99:B1 5.4155e-06
18 *105:B1 *100:C 0.000183738
19 *105:B1 *44:42 0
20 *106:A_N *106:B 1.12643e-05
21 *106:A_N *44:42 3.07268e-05
22 *112:CLK *99:B1 6.25204e-05
23 *112:CLK *44:38 0.000315139
24 *112:D *99:B1 2.99261e-05
25 *115:A *44:38 3.00381e-05
26 *17:8 *106:B 2.08258e-07
27 *17:8 *44:38 7.49327e-05
28 *17:8 *44:42 0.000234685
29 *26:8 *100:C 6.00027e-05
30 *41:12 *100:C 0
31 *41:43 *100:C 5.05437e-05
32 *42:32 *99:B1 0.000108162
33 *43:14 *99:B1 2.99981e-06
34 *43:14 *44:38 7.06865e-05
35 *43:18 *99:B1 4.57301e-06
*RES
1 *112:Q *44:6 4.12 
2 *44:6 *99:B1 6.82 
3 *44:6 *44:19 2 
4 *44:19 *126:A 5.235 
5 *44:19 *44:38 13.565 
6 *44:38 *44:42 2.535 
7 *44:42 *106:B 1.70875 
8 *44:42 *100:C 9.485 
9 *44:38 *118:A 1.6 
*END

*D_NET *45 0.00161248
*CONN
*I *127:A I *D sky130_fd_sc_hd__buf_2
*I *119:A I *D sky130_fd_sc_hd__dlygate4sd3_1
*I *107:B1 I *D sky130_fd_sc_hd__a31o_1
*I *113:Q O *D sky130_fd_sc_hd__dfxtp_1
*CAP
1 *127:A 6.80937e-05
2 *119:A 2.06731e-05
3 *107:B1 0.000126798
4 *113:Q 0.000107051
5 *45:14 0.000348537
6 *45:8 0.00037621
7 *89:A *107:B1 0
8 *89:A *119:A 3.74161e-05
9 *89:A *45:14 0.000163199
10 *108:B *107:B1 0
11 *109:A3 *107:B1 3.68682e-05
12 *109:B1 *45:14 0
13 *122:A *127:A 0.000141599
14 *122:A *45:14 0.00013204
15 *15:14 *107:B1 0
16 *37:25 *107:B1 4.44927e-05
17 *37:33 *107:B1 9.50342e-06
*RES
1 *113:Q *45:8 4.74 
2 *45:8 *45:14 6.14 
3 *45:14 *107:B1 8 
4 *45:14 *119:A 2.05 
5 *45:8 *127:A 5.235 
*END

*D_NET *46 0.000721122
*CONN
*I *92:A1 I *D sky130_fd_sc_hd__o21ai_1
*I *117:X O *D sky130_fd_sc_hd__dlygate4sd3_1
*CAP
1 *92:A1 0.000339585
2 *117:X 0.000339585
3 *91:A1 *92:A1 1.32545e-05
4 *92:B1 *92:A1 2.86975e-05
*RES
1 *117:X *92:A1 7.28 
*END

*D_NET *47 0.00053294
*CONN
*I *103:A1 I *D sky130_fd_sc_hd__a21oi_1
*I *118:X O *D sky130_fd_sc_hd__dlygate4sd3_1
*CAP
1 *103:A1 0.000103061
2 *118:X 0.000103061
3 *97:A1 *103:A1 0.000140905
4 *103:A2 *103:A1 0.000139231
5 *44:38 *103:A1 4.66826e-05
*RES
1 *118:X *103:A1 9.63 
*END
