*SPEF "ieee 1481-1999"
*DESIGN "counter_dut"
*DATE "10:33:39 Wednesday December 04, 2024"
*VENDOR "The OpenROAD Project"
*PROGRAM "OpenROAD"
*VERSION "edf00dff99f6c40d67a30c0e22a8191c5d2ed9d6"
*DESIGN_FLOW "NAME_SCOPE LOCAL" "PIN_CAP NONE"
*DIVIDER /
*DELIMITER :
*BUS_DELIMITER []
*T_UNIT 1 NS
*C_UNIT 1 PF
*R_UNIT 1 OHM
*L_UNIT 1 HENRY

*NAME_MAP
*1 clk
*2 counter[0]
*3 counter[1]
*4 counter[2]
*5 counter[3]
*6 enable
*7 reset
*8 up_down
*11 _00_
*12 _01_
*13 _02_
*14 _03_
*15 _04_
*16 _05_
*17 _06_
*18 _07_
*19 _08_
*20 _09_
*21 _10_
*22 _11_
*23 _12_
*24 _13_
*25 _14_
*26 _15_
*27 _16_
*28 _17_
*29 _18_
*30 _19_
*31 _20_
*32 _21_
*33 _22_
*34 clknet_0_clk
*35 clknet_1_0__leaf_clk
*36 clknet_1_1__leaf_clk
*37 net1
*38 net2
*39 net3
*40 net4
*41 net5
*42 net6
*43 net7
*44 _23_
*45 _24_
*46 _25_
*47 _26_
*48 _27_
*49 _28_
*50 _29_
*51 _30_
*52 _31_
*53 _32_
*54 _33_
*55 _34_
*56 _35_
*57 _36_
*58 _37_
*59 _38_
*60 _39_
*61 _40_
*62 _41_
*63 _42_
*64 _43_
*65 _44_
*66 _45_
*67 _46_
*68 _47_
*69 _48_
*70 _49_
*71 clkbuf_0_clk
*72 clkbuf_1_0__f_clk
*73 clkbuf_1_1__f_clk
*74 input1
*75 input2
*76 input3
*77 output4
*78 output5
*79 output6
*80 output7

*PORTS
clk I
counter[0] O
counter[1] O
counter[2] O
counter[3] O
enable I
reset I
up_down I

*D_NET *1 0.00169976
*CONN
*P clk I
*I *71:A I *D sky130_fd_sc_hd__clkbuf_16
*CAP
1 clk 0.000613944
2 *71:A 0
3 *1:11 0.000613944
4 *1:11 *54:A1 7.94759e-05
5 *1:11 *74:A 6.23473e-05
6 *1:11 *76:A 5.08354e-05
7 *1:11 *17:12 0.000120454
8 *1:11 *23:10 0.000158759
*RES
1 clk *1:11 27.2135 
2 *1:11 *71:A 23 
*END

*D_NET *2 0.000327478
*CONN
*P counter[0] O
*I *77:X O *D sky130_fd_sc_hd__buf_1
*CAP
1 counter[0] 0.000132232
2 *77:X 0.000132232
3 counter[0] counter[1] 4.95589e-05
4 counter[0] *42:17 1.34542e-05
*RES
1 *77:X counter[0] 46.8213 
*END

*D_NET *3 0.000488846
*CONN
*P counter[1] O
*I *78:X O *D sky130_fd_sc_hd__buf_1
*CAP
1 counter[1] 0.000174488
2 *78:X 0.000174488
3 counter[1] counter[2] 5.08417e-05
4 counter[1] *42:17 3.94695e-05
5 counter[0] counter[1] 4.95589e-05
*RES
1 *78:X counter[1] 47.5256 
*END

*D_NET *4 0.000391389
*CONN
*P counter[2] O
*I *79:X O *D sky130_fd_sc_hd__buf_1
*CAP
1 counter[2] 0.000170274
2 *79:X 0.000170274
3 counter[1] counter[2] 5.08417e-05
*RES
1 *79:X counter[2] 47.1735 
*END

*D_NET *5 0.000325754
*CONN
*P counter[3] O
*I *80:X O *D sky130_fd_sc_hd__buf_1
*CAP
1 counter[3] 0.000137459
2 *80:X 0.000137459
3 counter[3] *75:A 5.08354e-05
*RES
1 *80:X counter[3] 46.8213 
*END

*D_NET *6 0.000791153
*CONN
*P enable I
*I *74:A I *D sky130_fd_sc_hd__buf_1
*CAP
1 enable 0.000237653
2 *74:A 0.000237653
3 *74:A *70:CLK 0.000159457
4 *74:A *75:A 6.46589e-05
5 *74:A *38:10 2.93845e-05
6 *1:11 *74:A 6.23473e-05
*RES
1 enable *74:A 49.7658 
*END

*D_NET *7 0.000469866
*CONN
*P reset I
*I *75:A I *D sky130_fd_sc_hd__buf_1
*CAP
1 reset 0.000145894
2 *75:A 0.000145894
3 *75:A *70:CLK 6.2583e-05
4 counter[3] *75:A 5.08354e-05
5 *74:A *75:A 6.46589e-05
*RES
1 reset *75:A 48.2299 
*END

*D_NET *8 0.000514198
*CONN
*P up_down I
*I *76:A I *D sky130_fd_sc_hd__buf_1
*CAP
1 up_down 0.000231681
2 *76:A 0.000231681
3 *76:A *39:58 0
4 *1:11 *76:A 5.08354e-05
*RES
1 up_down *76:A 48.9342 
*END

*D_NET *11 0.00164763
*CONN
*I *67:D I *D sky130_fd_sc_hd__dfxtp_1
*I *49:Y O *D sky130_fd_sc_hd__o21ai_1
*CAP
1 *67:D 0.000356215
2 *49:Y 0.000213875
3 *11:8 0.00057009
4 *67:D *67:CLK 0.000266747
5 *67:D *69:CLK 7.03869e-05
6 *67:D *29:10 0
7 *67:D *40:6 7.10068e-06
8 *11:8 *45:A 2.45549e-06
9 *11:8 *60:A1 2.03764e-06
10 *11:8 *69:D 3.18969e-05
11 *11:8 *18:31 2.83426e-05
12 *11:8 *29:10 9.84794e-05
*RES
1 *49:Y *11:8 42.4329 
2 *11:8 *67:D 47.4923 
*END

*D_NET *12 0.000680051
*CONN
*I *68:D I *D sky130_fd_sc_hd__dfxtp_1
*I *55:X O *D sky130_fd_sc_hd__a31o_1
*CAP
1 *68:D 8.95222e-05
2 *55:X 0.00018091
3 *12:8 0.000270432
4 *68:D *39:6 1.17801e-06
5 *68:D *39:10 0
6 *12:8 *63:A_N 0
7 *12:8 *23:10 0
8 *12:8 *39:58 0.000138008
*RES
1 *55:X *12:8 43.075 
2 *12:8 *68:D 39.6209 
*END

*D_NET *13 0.000847204
*CONN
*I *69:D I *D sky130_fd_sc_hd__dfxtp_1
*I *61:Y O *D sky130_fd_sc_hd__o21ai_1
*CAP
1 *69:D 7.75104e-05
2 *61:Y 0.000103938
3 *13:10 0.000181449
4 *69:D *60:A1 0.000165575
5 *13:10 *60:A1 2.81066e-05
6 *13:10 *67:CLK 1.01436e-05
7 *13:10 *69:CLK 0.000104869
8 *13:10 *18:37 0.000117254
9 *13:10 *34:31 2.64616e-05
10 *11:8 *69:D 3.18969e-05
*RES
1 *61:Y *13:10 40.6514 
2 *13:10 *69:D 39.8902 
*END

*D_NET *14 0.000431185
*CONN
*I *70:D I *D sky130_fd_sc_hd__dfxtp_1
*I *66:X O *D sky130_fd_sc_hd__a31o_1
*CAP
1 *70:D 7.34443e-05
2 *66:X 7.18556e-05
3 *14:8 0.0001453
4 *70:D *38:10 1.75126e-05
5 *70:D *43:16 0
6 *14:8 *70:CLK 0
7 *14:8 *32:10 2.8241e-05
8 *14:8 *43:16 9.48318e-05
*RES
1 *66:X *14:8 40.2579 
2 *14:8 *70:D 39.6209 
*END

*D_NET *15 0.00285504
*CONN
*I *66:A1 I *D sky130_fd_sc_hd__a31o_1
*I *45:B I *D sky130_fd_sc_hd__nand2_1
*I *55:A2 I *D sky130_fd_sc_hd__a31o_1
*I *46:A I *D sky130_fd_sc_hd__nor2_1
*I *44:Y O *D sky130_fd_sc_hd__inv_2
*CAP
1 *66:A1 0.000132368
2 *45:B 0.000188075
3 *55:A2 0
4 *46:A 8.62077e-05
5 *44:Y 4.36287e-05
6 *15:30 0.000505841
7 *15:14 0.000206375
8 *15:6 0.000349194
9 *45:B *66:A3 0
10 *45:B *66:B1 0
11 *45:B *18:10 2.42345e-05
12 *45:B *18:31 5.41385e-05
13 *45:B *43:6 3.34247e-05
14 *45:B *43:16 1.59094e-05
15 *46:A *44:A 9.84851e-05
16 *46:A *55:A3 3.69625e-05
17 *46:A *37:6 0
18 *46:A *37:15 0
19 *66:A1 *66:A3 2.4754e-05
20 *66:A1 *66:B1 5.50049e-05
21 *66:A1 *32:10 6.81603e-05
22 *66:A1 *43:16 2.72257e-05
23 *66:A1 *43:25 9.03784e-05
24 *15:6 *55:A3 8.34394e-05
25 *15:6 *64:A1 2.45549e-06
26 *15:6 *24:14 1.94812e-05
27 *15:14 *44:A 4.5643e-05
28 *15:14 *55:A3 0.000137651
29 *15:14 *64:A1 2.13733e-05
30 *15:14 *24:14 7.76364e-06
31 *15:14 *37:15 1.05235e-05
32 *15:14 *37:23 6.0174e-05
33 *15:30 *44:A 0
34 *15:30 *65:B 2.47015e-05
35 *15:30 *17:58 0
36 *15:30 *24:14 8.8873e-05
37 *15:30 *31:31 7.57281e-06
38 *15:30 *32:10 5.29344e-05
39 *15:30 *37:23 4.26084e-05
40 *15:30 *43:25 0.000209476
*RES
1 *44:Y *15:6 24.0979 
2 *15:6 *15:14 32.7757 
3 *15:14 *46:A 25.0507 
4 *15:14 *55:A2 23 
5 *15:6 *15:30 19.7229 
6 *15:30 *45:B 41.9564 
7 *15:30 *66:A1 42.205 
*END

*D_NET *16 0.00095716
*CONN
*I *49:A2 I *D sky130_fd_sc_hd__o21ai_1
*I *61:A1 I *D sky130_fd_sc_hd__o21ai_1
*I *45:Y O *D sky130_fd_sc_hd__nand2_1
*CAP
1 *49:A2 0
2 *61:A1 0
3 *45:Y 8.59565e-05
4 *16:14 0.000128864
5 *16:6 0.000214821
6 *16:6 *45:A 4.67488e-05
7 *16:6 *66:A3 0
8 *16:6 *18:31 1.57571e-05
9 *16:14 *45:A 0.000170604
10 *16:14 *49:A1 0.000199701
11 *16:14 *17:24 4.9662e-05
12 *16:14 *18:31 6.74969e-06
13 *16:14 *19:10 2.60152e-05
14 *16:14 *33:8 1.22803e-05
*RES
1 *45:Y *16:6 24.5743 
2 *16:6 *16:14 34.06 
3 *16:14 *61:A1 23 
4 *16:6 *49:A2 23 
*END

*D_NET *17 0.0050085
*CONN
*I *66:B1 I *D sky130_fd_sc_hd__a31o_1
*I *54:B1 I *D sky130_fd_sc_hd__a21o_1
*I *48:B1 I *D sky130_fd_sc_hd__a21oi_1
*I *60:B1 I *D sky130_fd_sc_hd__a21oi_1
*I *46:Y O *D sky130_fd_sc_hd__nor2_1
*CAP
1 *66:B1 0.000347479
2 *54:B1 0
3 *48:B1 0
4 *60:B1 0
5 *46:Y 0.000442278
6 *17:58 0.000409198
7 *17:51 0.000208538
8 *17:32 6.50651e-05
9 *17:24 0.000552089
10 *17:16 0.000387322
11 *17:12 0.000489395
12 *66:B1 *54:A1 2.3086e-05
13 *66:B1 *66:A3 0.000272377
14 *66:B1 *18:31 9.26098e-05
15 *66:B1 *32:10 0
16 *66:B1 *33:8 0
17 *66:B1 *43:6 1.04196e-05
18 *66:B1 *43:16 2.92911e-06
19 *66:B1 *43:25 0
20 *17:12 *70:CLK 9.33529e-06
21 *17:12 *31:31 0.000120418
22 *17:16 *54:A1 3.66799e-05
23 *17:16 *24:14 0
24 *17:24 *64:A2 0.000137651
25 *17:24 *65:B 7.16015e-05
26 *17:24 *18:31 0
27 *17:24 *37:34 2.43544e-05
28 *17:32 *65:B 0
29 *17:32 *19:10 0.00019971
30 *17:32 *29:10 8.85376e-05
31 *17:32 *34:31 3.92407e-05
32 *17:51 *48:A1 3.22879e-05
33 *17:51 *18:31 0
34 *17:51 *18:37 0.000311822
35 *17:51 *19:10 2.45549e-06
36 *17:51 *28:10 4.07715e-05
37 *17:51 *34:6 1.40958e-05
38 *17:51 *34:18 3.97329e-05
39 *17:51 *34:31 0.000260972
40 *17:51 *40:10 2.03764e-06
41 *17:58 *54:A1 3.86278e-05
42 *17:58 *65:B 1.02561e-05
43 *17:58 *43:25 0
44 *45:B *66:B1 0
45 *66:A1 *66:B1 5.50049e-05
46 *1:11 *17:12 0.000120454
47 *15:30 *17:58 0
48 *16:14 *17:24 4.9662e-05
*RES
1 *46:Y *17:12 47.5792 
2 *17:12 *17:16 9.02536 
3 *17:16 *17:24 20.5514 
4 *17:24 *17:32 33.1071 
5 *17:32 *60:B1 23 
6 *17:24 *17:51 37.2086 
7 *17:51 *48:B1 23 
8 *17:16 *17:58 1.20143 
9 *17:58 *54:B1 38 
10 *17:58 *66:B1 46.4307 
*END

*D_NET *18 0.00364872
*CONN
*I *60:A2 I *D sky130_fd_sc_hd__a21oi_1
*I *48:A2 I *D sky130_fd_sc_hd__a21oi_1
*I *54:A2 I *D sky130_fd_sc_hd__a21o_1
*I *47:Y O *D sky130_fd_sc_hd__nor2_1
*CAP
1 *60:A2 0
2 *48:A2 0
3 *54:A2 7.84611e-05
4 *47:Y 0.000262773
5 *18:37 0.000174786
6 *18:31 0.000548321
7 *18:10 0.00071477
8 *54:A2 *65:B 9.58714e-05
9 *54:A2 *65:C 6.17437e-06
10 *18:10 *64:A1 9.24795e-06
11 *18:10 *64:A2 8.31673e-05
12 *18:10 *65:B 4.39725e-05
13 *18:10 *31:31 1.26581e-05
14 *18:10 *32:10 5.67058e-05
15 *18:10 *37:15 6.51763e-05
16 *18:10 *38:10 5.50049e-05
17 *18:10 *43:16 0
18 *18:31 *45:A 0.000135037
19 *18:31 *54:A1 1.01436e-05
20 *18:31 *60:A1 2.64616e-05
21 *18:31 *65:C 3.3577e-05
22 *18:31 *29:10 5.41288e-05
23 *18:31 *33:8 0
24 *18:37 *67:CLK 0.000257587
25 *18:37 *69:CLK 1.22803e-05
26 *18:37 *28:10 1.94418e-05
27 *18:37 *29:10 0.000222123
28 *18:37 *34:31 1.99391e-05
29 *45:B *18:10 2.42345e-05
30 *45:B *18:31 5.41385e-05
31 *66:B1 *18:31 9.26098e-05
32 *11:8 *18:31 2.83426e-05
33 *13:10 *18:37 0.000117254
34 *16:6 *18:31 1.57571e-05
35 *16:14 *18:31 6.74969e-06
36 *17:24 *18:31 0
37 *17:51 *18:31 0
38 *17:51 *18:37 0.000311822
*RES
1 *47:Y *18:10 29.5043 
2 *18:10 *54:A2 24.9471 
3 *18:10 *18:31 38.0579 
4 *18:31 *18:37 38.2443 
5 *18:37 *48:A2 23 
6 *18:31 *60:A2 23 
*END

*D_NET *19 0.00186918
*CONN
*I *49:B1 I *D sky130_fd_sc_hd__o21ai_1
*I *48:Y O *D sky130_fd_sc_hd__a21oi_1
*CAP
1 *49:B1 0
2 *48:Y 0.000261466
3 *19:10 0.000261466
4 *19:10 *45:A 0.00019747
5 *19:10 *49:A1 4.54037e-05
6 *19:10 *53:A 6.70363e-05
7 *19:10 *28:10 0.000423004
8 *19:10 *29:10 1.69668e-05
9 *19:10 *34:18 9.26005e-05
10 *19:10 *34:31 1.99391e-05
11 *19:10 *37:34 0.00020064
12 *19:10 *40:10 5.50049e-05
13 *16:14 *19:10 2.60152e-05
14 *17:32 *19:10 0.00019971
15 *17:51 *19:10 2.45549e-06
*RES
1 *48:Y *19:10 47.9221 
2 *19:10 *49:B1 38 
*END

*D_NET *20 0.000416505
*CONN
*I *51:B I *D sky130_fd_sc_hd__or2_1
*I *52:B I *D sky130_fd_sc_hd__nand2_1
*I *50:X O *D sky130_fd_sc_hd__xor2_1
*CAP
1 *51:B 0
2 *52:B 1.46248e-05
3 *50:X 0.000101389
4 *20:8 0.000116013
5 *52:B *22:8 5.67058e-05
6 *20:8 *22:8 0.00012377
7 *20:8 *39:21 4.00259e-06
*RES
1 *50:X *20:8 26.0243 
2 *20:8 *52:B 23.6214 
3 *20:8 *51:B 23 
*END

*D_NET *21 0.0016306
*CONN
*I *53:A I *D sky130_fd_sc_hd__nand2_1
*I *59:A I *D sky130_fd_sc_hd__xnor2_1
*I *51:X O *D sky130_fd_sc_hd__or2_1
*CAP
1 *53:A 7.96086e-05
2 *59:A 0
3 *51:X 0.000232075
4 *21:10 0.000311684
5 *53:A *49:A1 8.9458e-05
6 *53:A *50:A 2.55642e-05
7 *53:A *28:10 5.55278e-05
8 *53:A *40:12 0.000142808
9 *53:A *40:57 2.72055e-05
10 *21:10 *50:A 0.00016689
11 *21:10 *62:A1 1.18615e-05
12 *21:10 *62:A2 1.22217e-05
13 *21:10 *62:B1 3.00678e-05
14 *21:10 *22:8 0.000356724
15 *21:10 *40:57 4.21594e-06
16 *21:10 *41:6 0
17 *21:10 *41:27 1.76557e-05
18 *19:10 *53:A 6.70363e-05
*RES
1 *51:X *21:10 44.815 
2 *21:10 *59:A 38 
3 *21:10 *53:A 41.3143 
*END

*D_NET *22 0.00216836
*CONN
*I *53:B I *D sky130_fd_sc_hd__nand2_1
*I *52:Y O *D sky130_fd_sc_hd__nand2_1
*CAP
1 *53:B 0.000182209
2 *52:Y 0.000153514
3 *22:8 0.000335724
4 *53:B *49:A1 8.02348e-05
5 *53:B *50:A 0.000195248
6 *53:B *40:12 0.000134896
7 *53:B *41:12 0
8 *53:B *42:44 0.000198399
9 *22:8 *50:A 0.000143655
10 *22:8 *62:A1 0
11 *22:8 *39:21 0.000185428
12 *22:8 *41:27 2.18506e-05
13 *52:B *22:8 5.67058e-05
14 *20:8 *22:8 0.00012377
15 *21:10 *22:8 0.000356724
*RES
1 *52:Y *22:8 44.815 
2 *22:8 *53:B 43.4271 
*END

*D_NET *23 0.00207719
*CONN
*I *55:A3 I *D sky130_fd_sc_hd__a31o_1
*I *53:Y O *D sky130_fd_sc_hd__nand2_1
*CAP
1 *55:A3 0.000127084
2 *53:Y 0.000288001
3 *23:20 0.000239066
4 *23:10 0.000399983
5 *55:A3 *44:A 1.22822e-05
6 *55:A3 *24:14 9.88574e-06
7 *55:A3 *37:15 4.37586e-06
8 *55:A3 *37:34 0.000224605
9 *23:10 *54:A1 8.12482e-06
10 *23:10 *62:A2 0
11 *23:10 *62:A3 0
12 *23:10 *63:A_N 0.00010871
13 *23:10 *30:10 5.27215e-06
14 *23:10 *34:18 6.99128e-05
15 *23:10 *40:10 6.17437e-06
16 *23:10 *41:6 0
17 *23:10 *42:44 0.00011011
18 *23:20 *54:A1 0
19 *23:20 *63:A_N 0
20 *23:20 *24:14 2.03327e-05
21 *23:20 *37:34 2.64616e-05
22 *46:A *55:A3 3.69625e-05
23 *1:11 *23:10 0.000158759
24 *12:8 *23:10 0
25 *15:6 *55:A3 8.34394e-05
26 *15:14 *55:A3 0.000137651
*RES
1 *53:Y *23:10 44.5664 
2 *23:10 *23:20 46.8229 
3 *23:20 *55:A3 27.1429 
*END

*D_NET *24 0.000814313
*CONN
*I *55:B1 I *D sky130_fd_sc_hd__a31o_1
*I *54:X O *D sky130_fd_sc_hd__a21o_1
*CAP
1 *55:B1 1.66296e-05
2 *54:X 0.000211718
3 *24:14 0.000228347
4 *55:B1 *44:A 6.78607e-05
5 *55:B1 *37:34 5.57572e-05
6 *24:14 *54:A1 0
7 *24:14 *64:A2 7.08135e-05
8 *24:14 *65:B 0
9 *24:14 *37:23 1.68502e-05
10 *55:A3 *24:14 9.88574e-06
11 *15:6 *24:14 1.94812e-05
12 *15:14 *24:14 7.76364e-06
13 *15:30 *24:14 8.8873e-05
14 *17:16 *24:14 0
15 *23:20 *24:14 2.03327e-05
*RES
1 *54:X *24:14 42.1221 
2 *24:14 *55:B1 39.0823 
*END

*D_NET *25 0.000421905
*CONN
*I *58:A I *D sky130_fd_sc_hd__nand2_1
*I *56:X O *D sky130_fd_sc_hd__a21o_1
*CAP
1 *58:A 0
2 *56:X 0.000179646
3 *25:10 0.000179646
4 *25:10 *56:A1 6.26126e-05
5 *25:10 *58:B 0
6 *25:10 *62:B1 0
*RES
1 *56:X *25:10 27.1014 
2 *25:10 *58:A 23 
*END

*D_NET *26 0.00122221
*CONN
*I *62:B1 I *D sky130_fd_sc_hd__o31ai_1
*I *58:B I *D sky130_fd_sc_hd__nand2_1
*I *57:Y O *D sky130_fd_sc_hd__nand3_1
*CAP
1 *62:B1 0.000204574
2 *58:B 0.000118048
3 *57:Y 1.34033e-05
4 *26:6 0.000336025
5 *58:B *41:27 0.000248317
6 *62:B1 *56:A1 1.12069e-05
7 *62:B1 *59:B 4.95081e-05
8 *62:B1 *62:A2 6.10774e-05
9 *62:B1 *40:57 9.84794e-05
10 *62:B1 *41:27 0
11 *62:B1 *42:44 2.25927e-05
12 *26:6 *56:A1 1.32314e-05
13 *26:6 *40:57 1.56762e-05
14 *21:10 *62:B1 3.00678e-05
15 *25:10 *58:B 0
16 *25:10 *62:B1 0
*RES
1 *57:Y *26:6 23.6214 
2 *26:6 *58:B 25.5271 
3 *26:6 *62:B1 27.9507 
*END

*D_NET *27 0.00101197
*CONN
*I *59:B I *D sky130_fd_sc_hd__xnor2_1
*I *58:Y O *D sky130_fd_sc_hd__nand2_1
*CAP
1 *59:B 7.55493e-05
2 *58:Y 0.000106649
3 *27:8 0.000182198
4 *59:B *56:A1 4.6595e-05
5 *59:B *40:57 0.000139357
6 *59:B *42:44 0.000310641
7 *27:8 *41:27 6.44585e-05
8 *27:8 *41:40 3.70094e-05
9 *62:B1 *59:B 4.95081e-05
*RES
1 *58:Y *27:8 40.2579 
2 *27:8 *59:B 41.48 
*END

*D_NET *28 0.00136289
*CONN
*I *61:A2 I *D sky130_fd_sc_hd__o21ai_1
*I *59:Y O *D sky130_fd_sc_hd__xnor2_1
*CAP
1 *61:A2 0
2 *59:Y 0.000215631
3 *28:10 0.000215631
4 *28:10 *34:31 0.000231587
5 *28:10 *40:10 1.59094e-05
6 *28:10 *40:57 9.03784e-05
7 *28:10 *42:44 5.50049e-05
8 *53:A *28:10 5.55278e-05
9 *17:51 *28:10 4.07715e-05
10 *18:37 *28:10 1.94418e-05
11 *19:10 *28:10 0.000423004
*RES
1 *59:Y *28:10 45.4571 
2 *28:10 *61:A2 38 
*END

*D_NET *29 0.00076372
*CONN
*I *61:B1 I *D sky130_fd_sc_hd__o21ai_1
*I *60:Y O *D sky130_fd_sc_hd__a21oi_1
*CAP
1 *61:B1 0
2 *60:Y 0.000123238
3 *29:10 0.000123238
4 *29:10 *33:8 0
5 *29:10 *34:31 3.70094e-05
6 *67:D *29:10 0
7 *11:8 *29:10 9.84794e-05
8 *17:32 *29:10 8.85376e-05
9 *18:31 *29:10 5.41288e-05
10 *18:37 *29:10 0.000222123
11 *19:10 *29:10 1.69668e-05
*RES
1 *60:Y *29:10 42.7643 
2 *29:10 *61:B1 38 
*END

*D_NET *30 0.00277513
*CONN
*I *65:C I *D sky130_fd_sc_hd__nand4_1
*I *64:A2 I *D sky130_fd_sc_hd__a31o_1
*I *62:Y O *D sky130_fd_sc_hd__o31ai_1
*CAP
1 *65:C 0.000112141
2 *64:A2 0.000190351
3 *62:Y 0.000171136
4 *30:10 0.000473628
5 *64:A2 *47:A 0
6 *64:A2 *64:A1 4.84355e-05
7 *64:A2 *65:B 0.000223692
8 *64:A2 *37:34 0
9 *65:C *54:A1 9.95958e-05
10 *65:C *65:B 2.43944e-05
11 *65:C *31:10 5.79427e-05
12 *65:C *31:31 1.18349e-05
13 *65:C *33:8 1.7152e-05
14 *30:10 *49:A1 0
15 *30:10 *54:A1 0.000552508
16 *30:10 *62:A2 1.98161e-05
17 *30:10 *62:A3 1.32314e-05
18 *30:10 *31:10 0.000336447
19 *30:10 *42:44 8.61645e-05
20 *54:A2 *65:C 6.17437e-06
21 *17:24 *64:A2 0.000137651
22 *18:10 *64:A2 8.31673e-05
23 *18:31 *65:C 3.3577e-05
24 *23:10 *30:10 5.27215e-06
25 *24:14 *64:A2 7.08135e-05
*RES
1 *62:Y *30:10 45.8093 
2 *30:10 *64:A2 43.8984 
3 *30:10 *65:C 40.6514 
*END

*D_NET *31 0.00204617
*CONN
*I *64:A3 I *D sky130_fd_sc_hd__a31o_1
*I *65:D I *D sky130_fd_sc_hd__nand4_1
*I *63:Y O *D sky130_fd_sc_hd__nand2b_1
*CAP
1 *64:A3 0
2 *65:D 0
3 *63:Y 0.000138106
4 *31:31 0.000443587
5 *31:10 0.000581693
6 *31:10 *49:A1 0.00016535
7 *31:10 *33:8 6.23397e-05
8 *31:10 *34:18 5.67058e-05
9 *31:10 *37:34 0
10 *31:31 *44:A 4.21594e-06
11 *31:31 *64:A1 7.80291e-06
12 *31:31 *33:8 2.33476e-05
13 *31:31 *37:15 7.53384e-06
14 *31:31 *38:10 8.61037e-06
15 *65:C *31:10 5.79427e-05
16 *65:C *31:31 1.18349e-05
17 *15:30 *31:31 7.57281e-06
18 *17:12 *31:31 0.000120418
19 *18:10 *31:31 1.26581e-05
20 *30:10 *31:10 0.000336447
*RES
1 *63:Y *31:10 43.6964 
2 *31:10 *65:D 38 
3 *31:10 *31:31 32.7929 
4 *31:31 *64:A3 23 
*END

*D_NET *32 0.000636361
*CONN
*I *66:A2 I *D sky130_fd_sc_hd__a31o_1
*I *64:X O *D sky130_fd_sc_hd__a31o_1
*CAP
1 *66:A2 0
2 *64:X 0.000174148
3 *32:10 0.000174148
4 *32:10 *70:CLK 0
5 *32:10 *38:10 4.6318e-06
6 *32:10 *43:16 7.73918e-05
7 *66:A1 *32:10 6.81603e-05
8 *66:B1 *32:10 0
9 *14:8 *32:10 2.8241e-05
10 *15:30 *32:10 5.29344e-05
11 *18:10 *32:10 5.67058e-05
*RES
1 *64:X *32:10 43.3443 
2 *32:10 *66:A2 38 
*END

*D_NET *33 0.0018163
*CONN
*I *66:A3 I *D sky130_fd_sc_hd__a31o_1
*I *65:Y O *D sky130_fd_sc_hd__nand4_1
*CAP
1 *66:A3 0.000283827
2 *65:Y 0.000293701
3 *33:8 0.000577529
4 *66:A3 *43:16 0
5 *33:8 *49:A1 0.000248989
6 *45:B *66:A3 0
7 *65:C *33:8 1.7152e-05
8 *66:A1 *66:A3 2.4754e-05
9 *66:B1 *66:A3 0.000272377
10 *66:B1 *33:8 0
11 *16:6 *66:A3 0
12 *16:14 *33:8 1.22803e-05
13 *18:31 *33:8 0
14 *29:10 *33:8 0
15 *31:10 *33:8 6.23397e-05
16 *31:31 *33:8 2.33476e-05
*RES
1 *65:Y *33:8 44.4836 
2 *33:8 *66:A3 44.815 
*END

*D_NET *34 0.00227023
*CONN
*I *73:A I *D sky130_fd_sc_hd__clkbuf_16
*I *72:A I *D sky130_fd_sc_hd__clkbuf_16
*I *71:X O *D sky130_fd_sc_hd__clkbuf_16
*CAP
1 *73:A 0
2 *72:A 0
3 *71:X 8.96791e-05
4 *34:31 0.000142444
5 *34:18 0.000327697
6 *34:6 0.00055982
7 *34:6 *67:CLK 1.56662e-06
8 *34:6 *40:6 0
9 *34:18 *49:A1 6.22337e-05
10 *34:18 *63:A_N 5.67058e-05
11 *34:18 *37:34 3.7122e-06
12 *34:18 *40:10 8.06804e-06
13 *34:18 *42:44 0.00011011
14 *13:10 *34:31 2.64616e-05
15 *17:32 *34:31 3.92407e-05
16 *17:51 *34:6 1.40958e-05
17 *17:51 *34:18 3.97329e-05
18 *17:51 *34:31 0.000260972
19 *18:37 *34:31 1.99391e-05
20 *19:10 *34:18 9.26005e-05
21 *19:10 *34:31 1.99391e-05
22 *23:10 *34:18 6.99128e-05
23 *28:10 *34:31 0.000231587
24 *29:10 *34:31 3.70094e-05
25 *31:10 *34:18 5.67058e-05
*RES
1 *71:X *34:6 24.5743 
2 *34:6 *34:18 37.2293 
3 *34:18 *72:A 23 
4 *34:6 *34:31 35.1164 
5 *34:31 *73:A 23 
*END

*D_NET *35 0.00118192
*CONN
*I *70:CLK I *D sky130_fd_sc_hd__dfxtp_1
*I *68:CLK I *D sky130_fd_sc_hd__dfxtp_1
*I *72:X O *D sky130_fd_sc_hd__clkbuf_16
*CAP
1 *70:CLK 0.000300981
2 *68:CLK 9.75518e-05
3 *72:X 0
4 *35:6 0.000398533
5 *68:CLK *39:58 8.36251e-05
6 *70:CLK *44:A 0
7 *70:CLK *38:10 0
8 *70:CLK *39:58 6.98545e-05
9 *74:A *70:CLK 0.000159457
10 *75:A *70:CLK 6.2583e-05
11 *14:8 *70:CLK 0
12 *17:12 *70:CLK 9.33529e-06
13 *32:10 *70:CLK 0
*RES
1 *72:X *35:6 38 
2 *35:6 *68:CLK 40.9621 
3 *35:6 *70:CLK 46.2443 
*END

*D_NET *36 0.00181041
*CONN
*I *69:CLK I *D sky130_fd_sc_hd__dfxtp_1
*I *67:CLK I *D sky130_fd_sc_hd__dfxtp_1
*I *73:X O *D sky130_fd_sc_hd__clkbuf_16
*CAP
1 *69:CLK 5.50951e-05
2 *67:CLK 0.000148293
3 *73:X 0.00022439
4 *36:8 0.000427777
5 *67:CLK *40:6 2.30292e-05
6 *36:8 *60:A1 0.000208248
7 *67:D *67:CLK 0.000266747
8 *67:D *69:CLK 7.03869e-05
9 *13:10 *67:CLK 1.01436e-05
10 *13:10 *69:CLK 0.000104869
11 *18:37 *67:CLK 0.000257587
12 *18:37 *69:CLK 1.22803e-05
13 *34:6 *67:CLK 1.56662e-06
*RES
1 *73:X *36:8 43.8621 
2 *36:8 *67:CLK 45.105 
3 *36:8 *69:CLK 39.9057 
*END

*D_NET *37 0.00339862
*CONN
*I *64:A1 I *D sky130_fd_sc_hd__a31o_1
*I *45:A I *D sky130_fd_sc_hd__nand2_1
*I *65:A I *D sky130_fd_sc_hd__nand4_1
*I *55:A1 I *D sky130_fd_sc_hd__a31o_1
*I *47:A I *D sky130_fd_sc_hd__nor2_1
*I *74:X O *D sky130_fd_sc_hd__buf_1
*CAP
1 *64:A1 4.54998e-05
2 *45:A 0.0001533
3 *65:A 0
4 *55:A1 0
5 *47:A 4.01155e-05
6 *74:X 3.63081e-05
7 *37:34 0.00057295
8 *37:23 0.000511552
9 *37:15 0.000245408
10 *37:6 0.00018443
11 *45:A *49:A1 7.65883e-06
12 *37:6 *38:10 2.88999e-05
13 *37:15 *38:10 1.50279e-05
14 *37:23 *44:A 2.61423e-05
15 *37:34 *44:A 4.95081e-05
16 *37:34 *49:A1 9.74132e-05
17 *37:34 *63:A_N 0
18 *46:A *37:6 0
19 *46:A *37:15 0
20 *55:A3 *37:15 4.37586e-06
21 *55:A3 *37:34 0.000224605
22 *55:B1 *37:34 5.57572e-05
23 *64:A2 *47:A 0
24 *64:A2 *64:A1 4.84355e-05
25 *64:A2 *37:34 0
26 *11:8 *45:A 2.45549e-06
27 *15:6 *64:A1 2.45549e-06
28 *15:14 *64:A1 2.13733e-05
29 *15:14 *37:15 1.05235e-05
30 *15:14 *37:23 6.0174e-05
31 *15:30 *37:23 4.26084e-05
32 *16:6 *45:A 4.67488e-05
33 *16:14 *45:A 0.000170604
34 *17:24 *37:34 2.43544e-05
35 *18:10 *64:A1 9.24795e-06
36 *18:10 *37:15 6.51763e-05
37 *18:31 *45:A 0.000135037
38 *19:10 *45:A 0.00019747
39 *19:10 *37:34 0.00020064
40 *23:20 *37:34 2.64616e-05
41 *24:14 *37:23 1.68502e-05
42 *31:10 *37:34 0
43 *31:31 *64:A1 7.80291e-06
44 *31:31 *37:15 7.53384e-06
45 *34:18 *37:34 3.7122e-06
*RES
1 *74:X *37:6 24.0357 
2 *37:6 *47:A 23.8493 
3 *37:6 *37:15 2.58929 
4 *37:15 *37:23 32.4029 
5 *37:23 *55:A1 23 
6 *37:23 *37:34 24.9014 
7 *37:34 *65:A 38 
8 *37:34 *45:A 42.6814 
9 *37:15 *64:A1 24.595 
*END

*D_NET *38 0.00140168
*CONN
*I *47:B I *D sky130_fd_sc_hd__nor2_1
*I *44:A I *D sky130_fd_sc_hd__inv_2
*I *75:X O *D sky130_fd_sc_hd__buf_1
*CAP
1 *47:B 0
2 *44:A 0.000287881
3 *75:X 0.000181352
4 *38:10 0.000469233
5 *44:A *39:58 0
6 *46:A *44:A 9.84851e-05
7 *55:A3 *44:A 1.22822e-05
8 *55:B1 *44:A 6.78607e-05
9 *70:CLK *44:A 0
10 *70:CLK *38:10 0
11 *70:D *38:10 1.75126e-05
12 *74:A *38:10 2.93845e-05
13 *15:14 *44:A 4.5643e-05
14 *15:30 *44:A 0
15 *18:10 *38:10 5.50049e-05
16 *31:31 *44:A 4.21594e-06
17 *31:31 *38:10 8.61037e-06
18 *32:10 *38:10 4.6318e-06
19 *37:6 *38:10 2.88999e-05
20 *37:15 *38:10 1.50279e-05
21 *37:23 *44:A 2.61423e-05
22 *37:34 *44:A 4.95081e-05
*RES
1 *75:X *38:10 42.3293 
2 *38:10 *44:A 45.1671 
3 *38:10 *47:B 38 
*END

*D_NET *39 0.00271237
*CONN
*I *46:B I *D sky130_fd_sc_hd__nor2_1
*I *63:A_N I *D sky130_fd_sc_hd__nand2b_1
*I *62:A1 I *D sky130_fd_sc_hd__o31ai_1
*I *51:A I *D sky130_fd_sc_hd__or2_1
*I *52:A I *D sky130_fd_sc_hd__nand2_1
*I *76:X O *D sky130_fd_sc_hd__buf_1
*CAP
1 *46:B 0
2 *63:A_N 0.000238052
3 *62:A1 7.49494e-05
4 *51:A 5.31148e-05
5 *52:A 0
6 *76:X 7.78853e-05
7 *39:58 0.000238244
8 *39:32 0.000370855
9 *39:21 0.000213873
10 *39:10 0.000257875
11 *39:6 0.0004711
12 *51:A *41:12 0
13 *62:A1 *41:6 5.70419e-05
14 *63:A_N *54:A1 0
15 *63:A_N *41:6 0
16 *63:A_N *41:12 0
17 *39:32 *41:12 0
18 *44:A *39:58 0
19 *68:CLK *39:58 8.36251e-05
20 *68:D *39:6 1.17801e-06
21 *68:D *39:10 0
22 *70:CLK *39:58 6.98545e-05
23 *76:A *39:58 0
24 *12:8 *63:A_N 0
25 *12:8 *39:58 0.000138008
26 *20:8 *39:21 4.00259e-06
27 *21:10 *62:A1 1.18615e-05
28 *22:8 *62:A1 0
29 *22:8 *39:21 0.000185428
30 *23:10 *63:A_N 0.00010871
31 *23:20 *63:A_N 0
32 *34:18 *63:A_N 5.67058e-05
33 *37:34 *63:A_N 0
*RES
1 *76:X *39:6 24.5743 
2 *39:6 *39:10 3.37643 
3 *39:10 *52:A 23 
4 *39:10 *39:21 18.3764 
5 *39:21 *51:A 38.8493 
6 *39:21 *39:32 1.90571 
7 *39:32 *62:A1 40.0507 
8 *39:32 *63:A_N 43.8414 
9 *39:6 *39:58 37.54 
10 *39:58 *46:B 23 
*END

*D_NET *40 0.00697853
*CONN
*I *77:A I *D sky130_fd_sc_hd__buf_1
*I *48:A1 I *D sky130_fd_sc_hd__a21oi_1
*I *57:A I *D sky130_fd_sc_hd__nand3_1
*I *56:A1 I *D sky130_fd_sc_hd__a21o_1
*I *49:A1 I *D sky130_fd_sc_hd__o21ai_1
*I *62:A2 I *D sky130_fd_sc_hd__o31ai_1
*I *50:A I *D sky130_fd_sc_hd__xor2_1
*I *67:Q O *D sky130_fd_sc_hd__dfxtp_1
*CAP
1 *77:A 0
2 *48:A1 6.84946e-05
3 *57:A 0
4 *56:A1 0.000191278
5 *49:A1 0.000333968
6 *62:A2 0.000127539
7 *50:A 0.000112993
8 *67:Q 0
9 *40:92 0.000160096
10 *40:57 0.000337631
11 *40:12 0.000278159
12 *40:10 0.000473548
13 *40:6 0.000608643
14 *40:4 0.000451939
15 *50:A *41:12 0
16 *50:A *41:27 0.000187129
17 *56:A1 *57:C 0.00010018
18 *56:A1 *42:23 0.000111596
19 *56:A1 *42:25 0.000104169
20 *56:A1 *42:44 1.03955e-05
21 *62:A2 *62:A3 3.46255e-05
22 *62:A2 *41:6 1.69977e-05
23 *62:A2 *42:44 9.58714e-05
24 *40:6 *78:A 7.59964e-05
25 *40:6 *41:40 0.000178383
26 *40:6 *42:44 4.55057e-05
27 *40:10 *42:44 3.12591e-05
28 *40:92 *42:17 0.000284947
29 *45:A *49:A1 7.65883e-06
30 *53:A *49:A1 8.9458e-05
31 *53:A *50:A 2.55642e-05
32 *53:A *40:12 0.000142808
33 *53:A *40:57 2.72055e-05
34 *53:B *49:A1 8.02348e-05
35 *53:B *50:A 0.000195248
36 *53:B *40:12 0.000134896
37 *59:B *56:A1 4.6595e-05
38 *59:B *40:57 0.000139357
39 *62:B1 *56:A1 1.12069e-05
40 *62:B1 *62:A2 6.10774e-05
41 *62:B1 *40:57 9.84794e-05
42 *67:CLK *40:6 2.30292e-05
43 *67:D *40:6 7.10068e-06
44 *16:14 *49:A1 0.000199701
45 *17:51 *48:A1 3.22879e-05
46 *17:51 *40:10 2.03764e-06
47 *19:10 *49:A1 4.54037e-05
48 *19:10 *40:10 5.50049e-05
49 *21:10 *50:A 0.00016689
50 *21:10 *62:A2 1.22217e-05
51 *21:10 *40:57 4.21594e-06
52 *22:8 *50:A 0.000143655
53 *23:10 *62:A2 0
54 *23:10 *40:10 6.17437e-06
55 *25:10 *56:A1 6.26126e-05
56 *26:6 *56:A1 1.32314e-05
57 *26:6 *40:57 1.56762e-05
58 *28:10 *40:10 1.59094e-05
59 *28:10 *40:57 9.03784e-05
60 *30:10 *49:A1 0
61 *30:10 *62:A2 1.98161e-05
62 *31:10 *49:A1 0.00016535
63 *33:8 *49:A1 0.000248989
64 *34:6 *40:6 0
65 *34:18 *49:A1 6.22337e-05
66 *34:18 *40:10 8.06804e-06
67 *37:34 *49:A1 9.74132e-05
*RES
1 *67:Q *40:4 23 
2 *40:4 *40:6 8.72071 
3 *40:6 *40:10 17.0507 
4 *40:10 *40:12 1.90571 
5 *40:12 *50:A 43.0129 
6 *40:12 *62:A2 41.4075 
7 *40:10 *49:A1 48.0671 
8 *40:6 *40:57 33.8321 
9 *40:57 *56:A1 29.0486 
10 *40:57 *57:A 23 
11 *40:6 *48:A1 24.8229 
12 *40:4 *40:92 34.2879 
13 *40:92 *77:A 23 
*END

*D_NET *41 0.00556655
*CONN
*I *62:A3 I *D sky130_fd_sc_hd__o31ai_1
*I *54:A1 I *D sky130_fd_sc_hd__a21o_1
*I *78:A I *D sky130_fd_sc_hd__buf_1
*I *56:A2 I *D sky130_fd_sc_hd__a21o_1
*I *57:B I *D sky130_fd_sc_hd__nand3_1
*I *50:B I *D sky130_fd_sc_hd__xor2_1
*I *68:Q O *D sky130_fd_sc_hd__dfxtp_1
*CAP
1 *62:A3 4.46791e-05
2 *54:A1 0.000314347
3 *78:A 0.000293487
4 *56:A2 5.49935e-05
5 *57:B 0
6 *50:B 0
7 *68:Q 8.42443e-05
8 *41:40 0.000518932
9 *41:27 0.000682614
10 *41:12 0.000740963
11 *41:8 0.000543148
12 *41:6 0.000128923
13 *54:A1 *42:44 7.76364e-06
14 *56:A2 *42:23 4.00259e-06
15 *56:A2 *42:44 0
16 *78:A *42:23 6.64697e-05
17 *41:12 *42:44 2.76611e-06
18 *41:40 *42:23 3.98818e-05
19 *41:40 *42:25 5.29672e-05
20 *41:40 *42:44 0.000185434
21 *50:A *41:12 0
22 *50:A *41:27 0.000187129
23 *51:A *41:12 0
24 *53:B *41:12 0
25 *58:B *41:27 0.000248317
26 *62:A1 *41:6 5.70419e-05
27 *62:A2 *62:A3 3.46255e-05
28 *62:A2 *41:6 1.69977e-05
29 *62:B1 *41:27 0
30 *63:A_N *54:A1 0
31 *63:A_N *41:6 0
32 *63:A_N *41:12 0
33 *65:C *54:A1 9.95958e-05
34 *66:B1 *54:A1 2.3086e-05
35 *1:11 *54:A1 7.94759e-05
36 *17:16 *54:A1 3.66799e-05
37 *17:58 *54:A1 3.86278e-05
38 *18:31 *54:A1 1.01436e-05
39 *21:10 *41:6 0
40 *21:10 *41:27 1.76557e-05
41 *22:8 *41:27 2.18506e-05
42 *23:10 *54:A1 8.12482e-06
43 *23:10 *62:A3 0
44 *23:10 *41:6 0
45 *23:20 *54:A1 0
46 *24:14 *54:A1 0
47 *27:8 *41:27 6.44585e-05
48 *27:8 *41:40 3.70094e-05
49 *30:10 *54:A1 0.000552508
50 *30:10 *62:A3 1.32314e-05
51 *39:32 *41:12 0
52 *40:6 *78:A 7.59964e-05
53 *40:6 *41:40 0.000178383
*RES
1 *68:Q *41:6 25.0507 
2 *41:6 *41:8 15 
3 *41:8 *41:12 18.6664 
4 *41:12 *50:B 23 
5 *41:12 *41:27 24.5907 
6 *41:27 *57:B 38 
7 *41:27 *41:40 21.1107 
8 *41:40 *56:A2 24.2014 
9 *41:40 *78:A 30.7886 
10 *41:8 *54:A1 46.9486 
11 *41:6 *62:A3 24.1186 
*END

*D_NET *42 0.00520466
*CONN
*I *79:A I *D sky130_fd_sc_hd__buf_1
*I *56:B1 I *D sky130_fd_sc_hd__a21o_1
*I *63:B I *D sky130_fd_sc_hd__nand2b_1
*I *57:C I *D sky130_fd_sc_hd__nand3_1
*I *60:A1 I *D sky130_fd_sc_hd__a21oi_1
*I *69:Q O *D sky130_fd_sc_hd__dfxtp_1
*CAP
1 *79:A 0
2 *56:B1 0
3 *63:B 0
4 *57:C 1.48031e-05
5 *60:A1 0.000356742
6 *69:Q 0
7 *42:44 0.000341843
8 *42:25 0.000379822
9 *42:23 0.000180329
10 *42:17 0.000605974
11 *42:4 0.000805562
12 counter[0] *42:17 1.34542e-05
13 counter[1] *42:17 3.94695e-05
14 *53:B *42:44 0.000198399
15 *54:A1 *42:44 7.76364e-06
16 *56:A1 *57:C 0.00010018
17 *56:A1 *42:23 0.000111596
18 *56:A1 *42:25 0.000104169
19 *56:A1 *42:44 1.03955e-05
20 *56:A2 *42:23 4.00259e-06
21 *56:A2 *42:44 0
22 *59:B *42:44 0.000310641
23 *62:A2 *42:44 9.58714e-05
24 *62:B1 *42:44 2.25927e-05
25 *69:D *60:A1 0.000165575
26 *78:A *42:23 6.64697e-05
27 *11:8 *60:A1 2.03764e-06
28 *13:10 *60:A1 2.81066e-05
29 *18:31 *60:A1 2.64616e-05
30 *23:10 *42:44 0.00011011
31 *28:10 *42:44 5.50049e-05
32 *30:10 *42:44 8.61645e-05
33 *34:18 *42:44 0.00011011
34 *36:8 *60:A1 0.000208248
35 *40:6 *42:44 4.55057e-05
36 *40:10 *42:44 3.12591e-05
37 *40:92 *42:17 0.000284947
38 *41:12 *42:44 2.76611e-06
39 *41:40 *42:23 3.98818e-05
40 *41:40 *42:25 5.29672e-05
41 *41:40 *42:44 0.000185434
*RES
1 *69:Q *42:4 23 
2 *42:4 *60:A1 31.7207 
3 *42:4 *42:17 40.7093 
4 *42:17 *42:23 4.95071 
5 *42:23 *42:25 1.57429 
6 *42:25 *57:C 24.0979 
7 *42:25 *42:44 41.5275 
8 *42:44 *63:B 23 
9 *42:23 *56:B1 23 
10 *42:17 *79:A 23 
*END

*D_NET *43 0.00289546
*CONN
*I *64:B1 I *D sky130_fd_sc_hd__a31o_1
*I *65:B I *D sky130_fd_sc_hd__nand4_1
*I *80:A I *D sky130_fd_sc_hd__buf_1
*I *70:Q O *D sky130_fd_sc_hd__dfxtp_1
*CAP
1 *64:B1 0
2 *65:B 0.000308857
3 *80:A 0
4 *70:Q 3.87211e-05
5 *43:25 0.000469454
6 *43:16 0.000411314
7 *43:6 0.000610633
8 *45:B *43:6 3.34247e-05
9 *45:B *43:16 1.59094e-05
10 *54:A2 *65:B 9.58714e-05
11 *64:A2 *65:B 0.000223692
12 *65:C *65:B 2.43944e-05
13 *66:A1 *43:16 2.72257e-05
14 *66:A1 *43:25 9.03784e-05
15 *66:A3 *43:16 0
16 *66:B1 *43:6 1.04196e-05
17 *66:B1 *43:16 2.92911e-06
18 *66:B1 *43:25 0
19 *70:D *43:16 0
20 *14:8 *43:16 9.48318e-05
21 *15:30 *65:B 2.47015e-05
22 *15:30 *43:25 0.000209476