*SPEF "ieee 1481-1999"
*DESIGN "counter_dut"
*DATE "11:30:41 Wednesday December 04, 2024"
*VENDOR "The OpenROAD Project"
*PROGRAM "OpenROAD"
*VERSION "edf00dff99f6c40d67a30c0e22a8191c5d2ed9d6"
*DESIGN_FLOW "NAME_SCOPE LOCAL" "PIN_CAP NONE"
*DIVIDER /
*DELIMITER :
*BUS_DELIMITER []
*T_UNIT 1 NS
*C_UNIT 1 PF
*R_UNIT 1 OHM
*L_UNIT 1 HENRY

*NAME_MAP
*3 clk
*4 counter[0]
*5 counter[1]
*6 counter[2]
*7 counter[3]
*8 enable
*9 reset
*10 up_down
*11 _00_
*12 _01_
*13 _02_
*14 _03_
*15 _04_
*16 _05_
*17 _06_
*18 _07_
*19 _08_
*20 _09_
*21 _10_
*22 _11_
*23 _12_
*24 _13_
*25 _14_
*26 _15_
*27 _16_
*28 _17_
*29 _18_
*30 _19_
*31 _20_
*32 _21_
*33 _22_
*34 clknet_0_clk
*35 clknet_1_0__leaf_clk
*36 clknet_1_1__leaf_clk
*37 net1
*38 net10
*39 net11
*40 net2
*41 net3
*42 net4
*43 net5
*44 net6
*45 net7
*46 net8
*47 net9
*48 FILLER_0_15
*49 FILLER_0_27
*50 FILLER_0_29
*51 FILLER_0_3
*52 FILLER_1_16
*53 FILLER_1_3
*54 FILLER_2_18
*55 FILLER_3_3
*56 FILLER_4_16
*57 FILLER_4_23
*58 FILLER_4_27
*59 FILLER_4_3
*60 FILLER_5_3
*61 FILLER_6_27
*62 FILLER_6_29
*63 FILLER_6_40
*64 FILLER_7_10
*65 FILLER_7_22
*66 PHY_EDGE_ROW_0_Left_8
*67 PHY_EDGE_ROW_0_Right_0
*68 PHY_EDGE_ROW_1_Left_9
*69 PHY_EDGE_ROW_1_Right_1
*70 PHY_EDGE_ROW_2_Left_10
*71 PHY_EDGE_ROW_2_Right_2
*72 PHY_EDGE_ROW_3_Left_11
*73 PHY_EDGE_ROW_3_Right_3
*74 PHY_EDGE_ROW_4_Left_12
*75 PHY_EDGE_ROW_4_Right_4
*76 PHY_EDGE_ROW_5_Left_13
*77 PHY_EDGE_ROW_5_Right_5
*78 PHY_EDGE_ROW_6_Left_14
*79 PHY_EDGE_ROW_6_Right_6
*80 PHY_EDGE_ROW_7_Left_15
*81 PHY_EDGE_ROW_7_Right_7
*82 TAP_TAPCELL_ROW_0_16
*83 TAP_TAPCELL_ROW_2_17
*84 TAP_TAPCELL_ROW_4_18
*85 TAP_TAPCELL_ROW_6_19
*86 TAP_TAPCELL_ROW_7_20
*87 _23_
*88 _24_
*89 _25_
*90 _26_
*91 _27_
*92 _28_
*93 _29_
*94 _30_
*95 _31_
*96 _32_
*97 _33_
*98 _34_
*99 _35_
*100 _36_
*101 _37_
*102 _38_
*103 _39_
*104 _40_
*105 _41_
*106 _42_
*107 _43_
*108 _44_
*109 _45_
*110 _46_
*111 _47_
*112 _48_
*113 _49_
*114 clkbuf_0_clk
*115 clkbuf_1_0__f_clk
*116 clkbuf_1_1__f_clk
*117 hold1
*118 hold2
*119 hold3
*120 hold4
*121 input1
*122 input2
*123 input3
*124 output4
*125 output5
*126 output6
*127 output7

*PORTS
clk I
counter[0] O
counter[1] O
counter[2] O
counter[3] O
enable I
reset I
up_down I

*D_NET *3 0.00285368
*CONN
*P clk I
*I *114:A I *D sky130_fd_sc_hd__clkbuf_16
*CAP
1 clk 0.00125985
2 *114:A 0.00125985
3 *114:A *103:A2 5.58875e-06
4 *114:A *109:B1 0
5 *114:A *111:CLK 0.000137955
6 *114:A *115:A 0.00012709
7 *114:A *121:A 3.45861e-05
8 *114:A *122:A 0
9 *114:A *123:A 2.87684e-05
10 *114:A *17:36 0
*RES
1 clk *114:A 21.5144 
*END

*D_NET *4 0.0011977
*CONN
*P counter[0] O
*I *124:X O *D sky130_fd_sc_hd__buf_2
*CAP
1 counter[0] 0.000410035
2 *124:X 0.000410035
3 counter[0] counter[1] 0.000247248
4 counter[0] counter[2] 0
5 counter[0] *42:14 0.000130381
*RES
1 *124:X counter[0] 23.0521 
*END

*D_NET *5 0.00158157
*CONN
*P counter[1] O
*I *125:X O *D sky130_fd_sc_hd__buf_2
*CAP
1 counter[1] 0.000432267
2 *125:X 0.000432267
3 counter[1] counter[2] 9.04288e-05
4 counter[1] *125:A 0.000142307
5 counter[1] *42:14 0.000237055
6 counter[0] counter[1] 0.000247248
*RES
1 *125:X counter[1] 25.3371 
*END

*D_NET *6 0.00146237
*CONN
*P counter[2] O
*I *126:X O *D sky130_fd_sc_hd__buf_2
*CAP
1 counter[2] 0.000551767
2 *126:X 0.000551767
3 counter[2] *125:A 0.000268409
4 counter[2] *44:38 0
5 counter[0] counter[2] 0
6 counter[1] counter[2] 9.04288e-05
*RES
1 *126:X counter[2] 22.9283 
*END

*D_NET *7 0.000745575
*CONN
*P counter[3] O
*I *127:X O *D sky130_fd_sc_hd__buf_2
*CAP
1 counter[3] 0.00036149
2 *127:X 0.00036149
3 counter[3] *122:A 2.25951e-05
*RES
1 *127:X counter[3] 21.1946 
*END

*D_NET *8 0.00124856
*CONN
*P enable I
*I *121:A I *D sky130_fd_sc_hd__buf_1
*CAP
1 enable 0.000464705
2 *121:A 0.000464705
3 *121:A *89:A 0
4 *121:A *105:A2 0
5 *121:A *122:A 3.45861e-05
6 *121:A *123:A 0.000249976
7 *121:A *37:10 0
8 *121:A *41:12 0
9 *114:A *121:A 3.45861e-05
*RES
1 enable *121:A 25.7089 
*END

*D_NET *9 0.00122146
*CONN
*P reset I
*I *122:A I *D sky130_fd_sc_hd__buf_1
*CAP
1 reset 0.000434179
2 *122:A 0.000434179
3 *122:A *127:A 0.000153047
4 *122:A *45:14 0.000142875
5 counter[3] *122:A 2.25951e-05
6 *114:A *122:A 0
7 *121:A *122:A 3.45861e-05
*RES
1 reset *122:A 21.7504 
*END

*D_NET *10 0.000943281
*CONN
*P up_down I
*I *123:A I *D sky130_fd_sc_hd__buf_1
*CAP
1 up_down 0.000332268
2 *123:A 0.000332268
3 *114:A *123:A 2.87684e-05
4 *121:A *123:A 0.000249976
*RES
1 up_down *123:A 22.141 
*END

*D_NET *11 0.000355294
*CONN
*I *110:D I *D sky130_fd_sc_hd__dfxtp_1
*I *92:Y O *D sky130_fd_sc_hd__o21ai_1
*CAP
1 *110:D 0.000100528
2 *92:Y 0.000100528
3 *110:D *91:A2 3.87996e-05
4 *110:D *91:B1 7.70035e-05
5 *110:D *92:A2 3.84349e-05
*RES
1 *92:Y *110:D 29.7652 
*END

*D_NET *12 0.0022198
*CONN
*I *111:D I *D sky130_fd_sc_hd__dfxtp_1
*I *98:X O *D sky130_fd_sc_hd__a31o_1
*CAP
1 *111:D 0.000705265
2 *98:X 0.000705265
3 *111:D *91:A2 3.69047e-06
4 *111:D *92:A2 9.91086e-05
5 *111:D *98:A1 0.000181803
6 *111:D *98:B1 4.87854e-05
7 *111:D *104:A1 0.000368104
8 *111:D *111:CLK 3.90513e-05
9 *111:D *18:14 7.49387e-06
10 *111:D *18:29 4.37864e-05
11 *111:D *42:24 1.74503e-05
*RES
1 *98:X *111:D 39.6223 
*END

*D_NET *13 0.00134982
*CONN
*I *112:D I *D sky130_fd_sc_hd__dfxtp_1
*I *104:Y O *D sky130_fd_sc_hd__o21ai_1
*CAP
1 *112:D 0.000492671
2 *104:Y 0.000492671
3 *112:D *99:B1 3.08811e-05
4 *112:D *104:A1 2.51605e-05
5 *112:D *104:B1 1.72894e-05
6 *112:D *111:CLK 3.18676e-05
7 *112:D *112:CLK 8.89117e-05
8 *112:D *42:24 0.000170373
9 *112:D *43:26 0
*RES
1 *104:Y *112:D 34.7429 
*END

*D_NET *14 0.000829305
*CONN
*I *120:A I *D sky130_fd_sc_hd__dlygate4sd3_1
*I *109:X O *D sky130_fd_sc_hd__a31o_1
*CAP
1 *120:A 0.000264857
2 *109:X 0.000264857
3 *120:A *97:A1 9.25014e-06
4 *120:A *98:A2 1.98839e-05
5 *120:A *116:A 4.29179e-05
6 *120:A *18:14 0.000227539
7 *120:A *40:12 0
*RES
1 *109:X *120:A 31.8321 
*END

*D_NET *15 0.00339643
*CONN
*I *88:B I *D sky130_fd_sc_hd__nand2_1
*I *98:A2 I *D sky130_fd_sc_hd__a31o_1
*I *109:A1 I *D sky130_fd_sc_hd__a31o_1
*I *89:A I *D sky130_fd_sc_hd__nor2_1
*I *87:Y O *D sky130_fd_sc_hd__inv_2
*CAP
1 *88:B 8.4601e-05
2 *98:A2 0.000150264
3 *109:A1 0
4 *89:A 0.000343173
5 *87:Y 0
6 *15:14 0.000747789
7 *15:4 0.000338953
8 *88:B *88:A 0.000139907
9 *88:B *107:A3 0
10 *88:B *37:37 0
11 *89:A *107:B1 0
12 *89:A *108:B 0.000106043
13 *89:A *109:A3 0.000367092
14 *89:A *119:A 4.27935e-05
15 *89:A *37:10 0.000175036
16 *89:A *45:14 0.000186662
17 *98:A2 *98:A1 0.000126264
18 *98:A2 *109:A3 4.85098e-05
19 *98:A2 *18:14 0.000142856
20 *15:14 *87:A 2.89114e-05
21 *15:14 *88:A 3.82817e-05
22 *15:14 *98:A1 2.39779e-05
23 *15:14 *107:A3 1.04232e-05
24 *15:14 *107:B1 0
25 *15:14 *109:A2 0.00017924
26 *15:14 *18:14 5.52302e-05
27 *15:14 *37:25 0
28 *15:14 *37:33 2.65105e-05
29 *15:14 *37:37 1.4024e-05
30 *120:A *98:A2 1.98839e-05
31 *121:A *89:A 0
*RES
1 *87:Y *15:4 9.3 
2 *15:4 *15:14 14.2679 
3 *15:14 *89:A 27.6214 
4 *15:14 *109:A1 9.3 
5 *15:14 *98:A2 13.1393 
6 *15:4 *88:B 11.3893 
*END

*D_NET *16 0.00324833
*CONN
*I *92:A2 I *D sky130_fd_sc_hd__o21ai_1
*I *104:A1 I *D sky130_fd_sc_hd__o21ai_1
*I *88:Y O *D sky130_fd_sc_hd__nand2_1
*CAP
1 *92:A2 0.000240483
2 *104:A1 0.000540184
3 *88:Y 0.000160638
4 *16:8 0.000941305
5 *92:A2 *91:B1 1.87746e-05
6 *92:A2 *111:CLK 0.000193704
7 *104:A1 *104:B1 7.49933e-05
8 *104:A1 *111:CLK 0.000383976
9 *104:A1 *21:8 3.69047e-06
10 *104:A1 *42:24 2.51343e-06
11 *16:8 *88:A 1.92789e-05
12 *16:8 *34:8 0.000137983
13 *110:D *92:A2 3.84349e-05
14 *111:D *92:A2 9.91086e-05
15 *111:D *104:A1 0.000368104
16 *112:D *104:A1 2.51605e-05
*RES
1 *88:Y *16:8 16.3893 
2 *16:8 *104:A1 24.4071 
3 *16:8 *92:A2 19.2464 
*END

*D_NET *17 0.00486155
*CONN
*I *91:B1 I *D sky130_fd_sc_hd__a21oi_1
*I *97:B1 I *D sky130_fd_sc_hd__a21o_1
*I *109:B1 I *D sky130_fd_sc_hd__a31o_1
*I *103:B1 I *D sky130_fd_sc_hd__a21oi_1
*I *89:Y O *D sky130_fd_sc_hd__nor2_1
*CAP
1 *91:B1 0.0004157
2 *97:B1 8.1604e-06
3 *109:B1 0.000400028
4 *103:B1 0.000100624
5 *89:Y 0.000381706
6 *17:36 0.000611291
7 *17:21 0.00081259
8 *17:8 0.000707461
9 *91:B1 *91:A2 3.73725e-05
10 *97:B1 *111:CLK 2.06112e-05
11 *97:B1 *116:A 2.06112e-05
12 *103:B1 *96:A 0
13 *103:B1 *97:A1 0.000173083
14 *103:B1 *104:A2 4.1331e-06
15 *109:B1 *45:14 0
16 *17:8 *89:B 2.89016e-05
17 *17:8 *105:A2 3.33238e-05
18 *17:8 *105:B1 0.00014285
19 *17:8 *106:A_N 0.000116588
20 *17:8 *106:B 2.16129e-07
21 *17:8 *44:38 8.57023e-05
22 *17:8 *44:42 0.000268409
23 *17:21 *96:A 0
24 *17:21 *97:A1 0.000235677
25 *17:21 *98:A3 0.000160732
26 *17:21 *18:14 0
27 *92:A2 *91:B1 1.87746e-05
28 *110:D *91:B1 7.70035e-05
29 *114:A *109:B1 0
30 *114:A *17:36 0
*RES
1 *89:Y *17:8 21.3179 
2 *17:8 *103:B1 16.05 
3 *17:8 *17:21 9.15107 
4 *17:21 *109:B1 18.2545 
5 *17:21 *17:36 0.407333 
6 *17:36 *97:B1 17.4868 
7 *17:36 *91:B1 19.5561 
*END

*D_NET *18 0.00384553
*CONN
*I *91:A2 I *D sky130_fd_sc_hd__a21oi_1
*I *97:A2 I *D sky130_fd_sc_hd__a21o_1
*I *103:A2 I *D sky130_fd_sc_hd__a21oi_1
*I *90:Y O *D sky130_fd_sc_hd__nor2_1
*CAP
1 *91:A2 0.000258808
2 *97:A2 0
3 *103:A2 0.000211711
4 *90:Y 0.000210598
5 *18:29 0.000372573
6 *18:14 0.000536075
7 *91:A2 *110:CLK 9.85001e-05
8 *91:A2 *42:77 0
9 *103:A2 *97:A1 0.000456343
10 *103:A2 *103:A1 0.000150611
11 *103:A2 *111:CLK 7.70029e-05
12 *103:A2 *115:A 0.000225822
13 *103:A2 *116:A 0.00015999
14 *18:14 *97:A1 5.33005e-05
15 *18:14 *98:A1 1.39726e-05
16 *18:14 *98:A3 6.09572e-05
17 *18:14 *98:B1 4.87854e-05
18 *18:14 *40:12 0.000170301
19 *18:29 *97:A1 0.000177821
20 *91:B1 *91:A2 3.73725e-05
21 *98:A2 *18:14 0.000142856
22 *110:D *91:A2 3.87996e-05
23 *111:D *91:A2 3.69047e-06
24 *111:D *18:14 7.49387e-06
25 *111:D *18:29 4.37864e-05
26 *114:A *103:A2 5.58875e-06
27 *120:A *18:14 0.000227539
28 *15:14 *18:14 5.52302e-05
29 *17:21 *18:14 0
*RES
1 *90:Y *18:14 24.0857 
2 *18:14 *103:A2 26.3179 
3 *18:14 *18:29 2.60714 
4 *18:29 *97:A2 9.3 
5 *18:29 *91:A2 23.55 
*END

*D_NET *19 0.000127601
*CONN
*I *92:B1 I *D sky130_fd_sc_hd__o21ai_1
*I *91:Y O *D sky130_fd_sc_hd__a21oi_1
*CAP
1 *92:B1 4.83671e-05
2 *91:Y 4.83671e-05
3 *92:B1 *92:A1 3.08664e-05
*RES
1 *91:Y *92:B1 19.5643 
*END

*D_NET *20 0.000447114
*CONN
*I *95:B I *D sky130_fd_sc_hd__nand2_1
*I *94:B I *D sky130_fd_sc_hd__or2_1
*I *93:X O *D sky130_fd_sc_hd__xor2_1
*CAP
1 *95:B 0
2 *94:B 5.46896e-05
3 *93:X 4.45457e-05
4 *20:8 9.92352e-05
5 *94:B *95:A 0.000150625
6 *94:B *105:A3 4.1331e-06
7 *94:B *43:37 5.80217e-05
8 *20:8 *101:A 0
9 *20:8 *42:32 0
10 *20:8 *43:26 3.58638e-05
*RES
1 *93:X *20:8 10.2643 
2 *20:8 *94:B 20.2464 
3 *20:8 *95:B 9.3 
*END

*D_NET *21 0.00147901
*CONN
*I *96:A I *D sky130_fd_sc_hd__nand2_1
*I *102:A I *D sky130_fd_sc_hd__xnor2_1
*I *94:X O *D sky130_fd_sc_hd__or2_1
*CAP
1 *96:A 0.000161754
2 *102:A 0.000115777
3 *94:X 0.000126685
4 *21:8 0.000404216
5 *96:A *96:B 0.000139067
6 *96:A *104:A2 5.83304e-05
7 *102:A *96:B 3.69697e-05
8 *102:A *101:A 0.000186669
9 *102:A *101:B 0
10 *102:A *102:B 0.000144773
11 *102:A *104:A2 7.6644e-05
12 *102:A *43:26 2.44318e-05
13 *103:B1 *96:A 0
14 *104:A1 *21:8 3.69047e-06
15 *17:21 *96:A 0
*RES
1 *94:X *21:8 15.1571 
2 *21:8 *102:A 17.2107 
3 *21:8 *96:A 17.2643 
*END

*D_NET *22 0.000907228
*CONN
*I *96:B I *D sky130_fd_sc_hd__nand2_1
*I *95:Y O *D sky130_fd_sc_hd__nand2_1
*CAP
1 *96:B 0.000254915
2 *95:Y 0.000254915
3 *96:B *95:A 7.43578e-06
4 *96:B *100:C 0.000113393
5 *96:B *101:B 6.58811e-05
6 *96:B *102:B 5.30637e-06
7 *96:B *105:B1 1.09026e-05
8 *96:B *43:26 1.84421e-05
9 *96:A *96:B 0.000139067
10 *102:A *96:B 3.69697e-05
*RES
1 *95:Y *96:B 33.3321 
*END

*D_NET *23 0.00079986
*CONN
*I *98:A3 I *D sky130_fd_sc_hd__a31o_1
*I *96:Y O *D sky130_fd_sc_hd__nand2_1
*CAP
1 *98:A3 0.000256181
2 *96:Y 0.000256181
3 *98:A3 *31:10 0
4 *98:A3 *40:12 2.37761e-05
5 *98:A3 *44:38 5.30637e-06
6 *98:A3 *44:42 3.67257e-05
7 *17:21 *98:A3 0.000160732
8 *18:14 *98:A3 6.09572e-05
*RES
1 *96:Y *98:A3 32.6179 
*END

*D_NET *24 0.000167246
*CONN
*I *98:B1 I *D sky130_fd_sc_hd__a31o_1
*I *97:X O *D sky130_fd_sc_hd__a21o_1
*CAP
1 *98:B1 3.48375e-05
2 *97:X 3.48375e-05
3 *111:D *98:B1 4.87854e-05
4 *18:14 *98:B1 4.87854e-05
*RES
1 *97:X *98:B1 19.5464 
*END

*D_NET *25 0.000700195
*CONN
*I *101:A I *D sky130_fd_sc_hd__nand2_1
*I *99:X O *D sky130_fd_sc_hd__a21o_1
*CAP
1 *101:A 0.000147169
2 *99:X 0.000147169
3 *101:A *102:B 2.44318e-05
4 *101:A *104:A2 5.52302e-05
5 *101:A *42:32 2.65105e-05
6 *101:A *43:18 9.90431e-05
7 *101:A *43:26 1.39726e-05
8 *102:A *101:A 0.000186669
9 *20:8 *101:A 0
*RES
1 *99:X *101:A 22.4393 
*END

*D_NET *26 0.00174406
*CONN
*I *101:B I *D sky130_fd_sc_hd__nand2_1
*I *105:B1 I *D sky130_fd_sc_hd__o31ai_1
*I *100:Y O *D sky130_fd_sc_hd__nand3_1
*CAP
1 *101:B 7.87939e-05
2 *105:B1 0.000200809
3 *100:Y 0.000173063
4 *26:8 0.000452665
5 *101:B *95:A 6.07232e-05
6 *101:B *43:26 3.18676e-05
7 *105:B1 *95:A 3.17148e-05
8 *105:B1 *100:C 0.000198698
9 *105:B1 *105:A3 0
10 *105:B1 *106:A_N 8.78385e-05
11 *105:B1 *41:12 0
12 *105:B1 *41:43 7.90803e-05
13 *105:B1 *44:42 0
14 *26:8 *94:A 5.33005e-05
15 *26:8 *100:C 6.26177e-05
16 *26:8 *41:43 1.32552e-05
17 *96:B *101:B 6.58811e-05
18 *96:B *105:B1 1.09026e-05
19 *102:A *101:B 0
20 *17:8 *105:B1 0.00014285
*RES
1 *100:Y *26:8 15.9786 
2 *26:8 *105:B1 19.2821 
3 *26:8 *101:B 15.9786 
*END

*D_NET *27 0.000473958
*CONN
*I *102:B I *D sky130_fd_sc_hd__xnor2_1
*I *101:Y O *D sky130_fd_sc_hd__nand2_1
*CAP
1 *102:B 3.35244e-05
2 *101:Y 3.35244e-05
3 *102:B *43:26 0.000232399
4 *96:B *102:B 5.30637e-06
5 *101:A *102:B 2.44318e-05
6 *102:A *102:B 0.000144773
*RES
1 *101:Y *102:B 20.7786 
*END

*D_NET *28 0.000416787
*CONN
*I *104:A2 I *D sky130_fd_sc_hd__o21ai_1
*I *102:Y O *D sky130_fd_sc_hd__xnor2_1
*CAP
1 *104:A2 0.000111224
2 *102:Y 0.000111224
3 *104:A2 *97:A1 0
4 *96:A *104:A2 5.83304e-05
5 *101:A *104:A2 5.52302e-05
6 *102:A *104:A2 7.6644e-05
7 *103:B1 *104:A2 4.1331e-06
*RES
1 *102:Y *104:A2 29.7786 
*END

*D_NET *29 0.000147377
*CONN
*I *104:B1 I *D sky130_fd_sc_hd__o21ai_1
*I *103:Y O *D sky130_fd_sc_hd__a21oi_1
*CAP
1 *104:B1 2.75474e-05
2 *103:Y 2.75474e-05
3 *104:A1 *104:B1 7.49933e-05
4 *112:D *104:B1 1.72894e-05
*RES
1 *103:Y *104:B1 19.5643 
*END

*D_NET *30 0.00091654
*CONN
*I *107:A2 I *D sky130_fd_sc_hd__a31o_1
*I *108:C I *D sky130_fd_sc_hd__nand4_1
*I *105:Y O *D sky130_fd_sc_hd__o31ai_1
*CAP
1 *107:A2 0.000103724
2 *108:C 0.000163473
3 *105:Y 0
4 *30:4 0.000267197
5 *107:A2 *106:A_N 4.38128e-05
6 *107:A2 *108:D 1.28809e-05
7 *107:A2 *31:10 9.91086e-05
8 *107:A2 *37:25 1.02504e-05
9 *107:A2 *37:33 5.59013e-05
10 *108:C *89:B 6.05161e-06
11 *108:C *106:A_N 0.000108106
12 *108:C *108:B 1.02504e-05
13 *108:C *37:10 3.57844e-05
14 *108:C *37:33 0
*RES
1 *105:Y *30:4 9.3 
2 *30:4 *108:C 21.1036 
3 *30:4 *107:A2 20.608 
*END

*D_NET *31 0.000817848
*CONN
*I *107:A3 I *D sky130_fd_sc_hd__a31o_1
*I *108:D I *D sky130_fd_sc_hd__nand4_1
*I *106:Y O *D sky130_fd_sc_hd__nand2b_1
*CAP
1 *107:A3 4.89048e-05
2 *108:D 0.000125948
3 *106:Y 6.84627e-05
4 *31:10 0.000243316
5 *107:A3 *37:33 4.27935e-05
6 *107:A3 *37:37 1.3701e-05
7 *108:D *37:25 5.81455e-05
8 *108:D *37:33 9.41642e-05
9 *88:B *107:A3 0
10 *98:A3 *31:10 0
11 *107:A2 *108:D 1.28809e-05
12 *107:A2 *31:10 9.91086e-05
13 *15:14 *107:A3 1.04232e-05
*RES
1 *106:Y *31:10 19.6393 
2 *31:10 *108:D 11.9071 
3 *31:10 *107:A3 11.1036 
*END

*D_NET *32 0.000468339
*CONN
*I *109:A2 I *D sky130_fd_sc_hd__a31o_1
*I *107:X O *D sky130_fd_sc_hd__a31o_1
*CAP
1 *109:A2 9.69112e-05
2 *107:X 9.69112e-05
3 *109:A2 *98:A1 7.83659e-05
4 *109:A2 *40:12 1.69115e-05
5 *15:14 *109:A2 0.00017924
*RES
1 *107:X *109:A2 29.7786 
*END

*D_NET *33 0.00110738
*CONN
*I *109:A3 I *D sky130_fd_sc_hd__a31o_1
*I *108:Y O *D sky130_fd_sc_hd__nand4_1
*CAP
1 *109:A3 0.000277424
2 *108:Y 0.000277424
3 *109:A3 *98:A1 2.286e-05
4 *109:A3 *107:B1 3.5707e-05
5 *109:A3 *108:B 7.83587e-05
6 *89:A *109:A3 0.000367092
7 *98:A2 *109:A3 4.85098e-05
*RES
1 *108:Y *109:A3 33.6 
*END

*D_NET *34 0.00291707
*CONN
*I *116:A I *D sky130_fd_sc_hd__clkbuf_16
*I *115:A I *D sky130_fd_sc_hd__clkbuf_16
*I *114:X O *D sky130_fd_sc_hd__clkbuf_16
*CAP
1 *116:A 0.000293298
2 *115:A 9.35559e-05
3 *114:X 0.000545983
4 *34:8 0.000932837
5 *115:A *111:CLK 5.08385e-05
6 *115:A *44:38 3.18676e-05
7 *116:A *97:A1 1.01487e-05
8 *116:A *111:CLK 0.000224836
9 *116:A *113:CLK 1.92905e-05
10 *116:A *40:12 0
11 *97:B1 *116:A 2.06112e-05
12 *103:A2 *115:A 0.000225822
13 *103:A2 *116:A 0.00015999
14 *114:A *115:A 0.00012709
15 *120:A *116:A 4.29179e-05
16 *16:8 *34:8 0.000137983
*RES
1 *114:X *34:8 20.0857 
2 *34:8 *115:A 17.1929 
3 *34:8 *116:A 21.1393 
*END

*D_NET *35 0.00276015
*CONN
*I *110:CLK I *D sky130_fd_sc_hd__dfxtp_1
*I *112:CLK I *D sky130_fd_sc_hd__dfxtp_1
*I *115:X O *D sky130_fd_sc_hd__clkbuf_16
*CAP
1 *110:CLK 0.000493894
2 *112:CLK 0.000338285
3 *115:X 0.000121754
4 *35:8 0.000953933
5 *112:CLK *99:A2 3.50166e-05
6 *112:CLK *99:B1 6.11621e-05
7 *112:CLK *43:14 0.000227913
8 *112:CLK *44:38 0.000340781
9 *91:A2 *110:CLK 9.85001e-05
10 *112:D *112:CLK 8.89117e-05
*RES
1 *115:X *35:8 15.1571 
2 *35:8 *112:CLK 22.5143 
3 *35:8 *110:CLK 20.9964 
*END

*D_NET *36 0.0041083
*CONN
*I *111:CLK I *D sky130_fd_sc_hd__dfxtp_1
*I *113:CLK I *D sky130_fd_sc_hd__dfxtp_1
*I *116:X O *D sky130_fd_sc_hd__clkbuf_16
*CAP
1 *111:CLK 0.000390811
2 *113:CLK 0.00050371
3 *116:X 0.000479337
4 *36:6 0.00137386
5 *113:CLK *40:12 0.000181447
6 *92:A2 *111:CLK 0.000193704
7 *97:B1 *111:CLK 2.06112e-05
8 *103:A2 *111:CLK 7.70029e-05
9 *104:A1 *111:CLK 0.000383976
10 *111:D *111:CLK 3.90513e-05
11 *112:D *111:CLK 3.18676e-05
12 *114:A *111:CLK 0.000137955
13 *115:A *111:CLK 5.08385e-05
14 *116:A *111:CLK 0.000224836
15 *116:A *113:CLK 1.92905e-05
*RES
1 *116:X *36:6 14.7643 
2 *36:6 *113:CLK 24.9964 
3 *36:6 *111:CLK 30.4964 
*END

*D_NET *37 0.00375058
*CONN
*I *107:A1 I *D sky130_fd_sc_hd__a31o_1
*I *88:A I *D sky130_fd_sc_hd__nand2_1
*I *90:A I *D sky130_fd_sc_hd__nor2_1
*I *98:A1 I *D sky130_fd_sc_hd__a31o_1
*I *108:A I *D sky130_fd_sc_hd__nand4_1
*I *121:X O *D sky130_fd_sc_hd__buf_1
*CAP
1 *107:A1 0
2 *88:A 0.000210945
3 *90:A 0
4 *98:A1 0.000240467
5 *108:A 3.92501e-05
6 *121:X 0.000138484
7 *37:37 0.000257571
8 *37:33 0.000481019
9 *37:25 0.000476552
10 *37:10 0.000401318
11 *88:A *87:A 5.71472e-05
12 *98:A1 *40:12 7.8327e-05
13 *37:10 *108:B 5.83233e-05
14 *37:10 *41:12 8.1835e-05
15 *37:25 *107:B1 4.80729e-05
16 *37:33 *107:B1 1.02504e-05
17 *37:33 *108:B 0
18 *88:B *88:A 0.000139907
19 *88:B *37:37 0
20 *89:A *37:10 0.000175036
21 *98:A2 *98:A1 0.000126264
22 *107:A2 *37:25 1.02504e-05
23 *107:A2 *37:33 5.59013e-05
24 *107:A3 *37:33 4.27935e-05
25 *107:A3 *37:37 1.3701e-05
26 *108:C *37:10 3.57844e-05
27 *108:C *37:33 0
28 *108:D *37:25 5.81455e-05
29 *108:D *37:33 9.41642e-05
30 *109:A2 *98:A1 7.83659e-05
31 *109:A3 *98:A1 2.286e-05
32 *111:D *98:A1 0.000181803
33 *121:A *37:10 0
34 *15:14 *88:A 3.82817e-05
35 *15:14 *98:A1 2.39779e-05
36 *15:14 *37:25 0
37 *15:14 *37:33 2.65105e-05
38 *15:14 *37:37 1.4024e-05
39 *16:8 *88:A 1.92789e-05
40 *18:14 *98:A1 1.39726e-05
*RES
1 *121:X *37:10 22.3714 
2 *37:10 *108:A 9.83571 
3 *37:10 *37:25 8.55357 
4 *37:25 *37:33 8.45536 
5 *37:33 *37:37 0.758929 
6 *37:37 *98:A1 24.2286 
7 *37:37 *90:A 9.3 
8 *37:33 *88:A 13.3446 
9 *37:25 *107:A1 13.8 
*END

*D_NET *38 0.000524481
*CONN
*I *108:B I *D sky130_fd_sc_hd__nand4_1
*I *119:X O *D sky130_fd_sc_hd__dlygate4sd3_1
*CAP
1 *108:B 0.000135753
2 *119:X 0.000135753
3 *108:B *107:B1 0
4 *89:A *108:B 0.000106043
5 *108:C *108:B 1.02504e-05
6 *109:A3 *108:B 7.83587e-05
7 *37:10 *108:B 5.83233e-05
8 *37:33 *108:B 0
*RES
1 *119:X *108:B 30.6893 
*END

*D_NET *39 0.000221825
*CONN
*I *113:D I *D sky130_fd_sc_hd__dfxtp_1
*I *120:X O *D sky130_fd_sc_hd__dlygate4sd3_1
*CAP
1 *113:D 0.000110912
2 *120:X 0.000110912
*RES
1 *120:X *113:D 20.2295 
*END

*D_NET *40 0.00177461
*CONN
*I *87:A I *D sky130_fd_sc_hd__inv_2
*I *90:B I *D sky130_fd_sc_hd__nor2_1
*I *122:X O *D sky130_fd_sc_hd__buf_1
*CAP
1 *87:A 1.13798e-05
2 *90:B 0
3 *122:X 0.000597517
4 *40:12 0.000608897
5 *40:12 *97:A1 0
6 *88:A *87:A 5.71472e-05
7 *98:A1 *40:12 7.8327e-05
8 *98:A3 *40:12 2.37761e-05
9 *109:A2 *40:12 1.69115e-05
10 *113:CLK *40:12 0.000181447
11 *116:A *40:12 0
12 *120:A *40:12 0
13 *15:14 *87:A 2.89114e-05
14 *18:14 *40:12 0.000170301
*RES
1 *122:X *40:12 29.6393 
2 *40:12 *90:B 9.3 
3 *40:12 *87:A 9.83571 
*END

*D_NET *41 0.00240984
*CONN
*I *94:A I *D sky130_fd_sc_hd__or2_1
*I *95:A I *D sky130_fd_sc_hd__nand2_1
*I *106:A_N I *D sky130_fd_sc_hd__nand2b_1
*I *105:A1 I *D sky130_fd_sc_hd__o31ai_1
*I *89:B I *D sky130_fd_sc_hd__nor2_1
*I *123:X O *D sky130_fd_sc_hd__buf_1
*CAP
1 *94:A 1.69531e-05
2 *95:A 7.55858e-05
3 *106:A_N 0.00018328
4 *105:A1 0
5 *89:B 2.53291e-05
6 *123:X 0
7 *41:43 0.000282747
8 *41:12 0.000329295
9 *41:4 0.000310894
10 *94:A *100:C 5.33005e-05
11 *95:A *43:26 3.18676e-05
12 *106:A_N *106:B 1.28809e-05
13 *106:A_N *44:42 3.29331e-05
14 *41:12 *100:A 6.05161e-06
15 *41:12 *100:C 0
16 *41:12 *105:A2 0.000103267
17 *41:43 *100:A 2.28598e-05
18 *41:43 *100:C 5.33334e-05
19 *41:43 *105:A3 0
20 *94:B *95:A 0.000150625
21 *96:B *95:A 7.43578e-06
22 *101:B *95:A 6.07232e-05
23 *105:B1 *95:A 3.17148e-05
24 *105:B1 *106:A_N 8.78385e-05
25 *105:B1 *41:12 0
26 *105:B1 *41:43 7.90803e-05
27 *107:A2 *106:A_N 4.38128e-05
28 *108:C *89:B 6.05161e-06
29 *108:C *106:A_N 0.000108106
30 *121:A *41:12 0
31 *17:8 *89:B 2.89016e-05
32 *17:8 *106:A_N 0.000116588
33 *26:8 *94:A 5.33005e-05
34 *26:8 *41:43 1.32552e-05
35 *37:10 *41:12 8.1835e-05
*RES
1 *123:X *41:4 9.3 
2 *41:4 *41:12 11.7857 
3 *41:12 *89:B 9.83571 
4 *41:12 *105:A1 9.3 
5 *41:12 *106:A_N 14.5143 
6 *41:4 *41:43 8.125 
7 *41:43 *95:A 16.2821 
8 *41:43 *94:A 14.3357 
*END

*D_NET *42 0.00708341
*CONN
*I *117:A I *D sky130_fd_sc_hd__dlygate4sd3_1
*I *91:A1 I *D sky130_fd_sc_hd__a21oi_1
*I *124:A I *D sky130_fd_sc_hd__buf_2
*I *99:A1 I *D sky130_fd_sc_hd__a21o_1
*I *93:A I *D sky130_fd_sc_hd__xor2_1
*I *105:A2 I *D sky130_fd_sc_hd__o31ai_1
*I *100:A I *D sky130_fd_sc_hd__nand3_1
*I *110:Q O *D sky130_fd_sc_hd__dfxtp_1
*CAP
1 *117:A 3.82418e-05
2 *91:A1 0.000343261
3 *124:A 0
4 *99:A1 0
5 *93:A 0
6 *105:A2 0.000102127
7 *100:A 2.76349e-05
8 *110:Q 5.05962e-05
9 *42:77 0.000604534
10 *42:36 0.0002316
11 *42:32 0.000787874
12 *42:24 0.00110223
13 *42:14 0.000824203
14 *42:8 0.000681631
15 *91:A1 *92:A1 1.31036e-05
16 *105:A2 *105:A3 7.60306e-05
17 *42:14 *125:A 1.98839e-05
18 *42:24 *97:A1 0
19 *42:24 *125:A 5.48009e-05
20 *42:24 *43:14 0.000265453
21 *42:32 *99:A2 0
22 *42:32 *99:B1 0.000118179
23 *42:32 *43:18 0.000146466
24 *42:32 *43:26 0.000750076
25 *42:36 *105:A3 1.17968e-05
26 *42:36 *43:37 8.39e-05
27 counter[0] *42:14 0.000130381
28 counter[1] *42:14 0.000237055
29 *91:A2 *42:77 0
30 *101:A *42:32 2.65105e-05
31 *104:A1 *42:24 2.51343e-06
32 *111:D *42:24 1.74503e-05
33 *112:D *42:24 0.000170373
34 *121:A *105:A2 0
35 *17:8 *105:A2 3.33238e-05
36 *20:8 *42:32 0
37 *41:12 *100:A 6.05161e-06
38 *41:12 *105:A2 0.000103267
39 *41:43 *100:A 2.28598e-05
*RES
1 *110:Q *42:8 14.3357 
2 *42:8 *42:14 13.0714 
3 *42:14 *42:24 16.9464 
4 *42:24 *42:32 12.0714 
5 *42:32 *42:36 6.75 
6 *42:36 *100:A 14.3357 
7 *42:36 *105:A2 16.0768 
8 *42:32 *93:A 9.3 
9 *42:24 *99:A1 9.3 
10 *42:14 *124:A 9.3 
11 *42:8 *42:77 8 
12 *42:77 *91:A1 13.1214 
13 *42:77 *117:A 10.0321 
*END

*D_NET *43 0.00777491
*CONN
*I *125:A I *D sky130_fd_sc_hd__buf_2
*I *99:A2 I *D sky130_fd_sc_hd__a21o_1
*I *97:A1 I *D sky130_fd_sc_hd__a21o_1
*I *105:A3 I *D sky130_fd_sc_hd__o31ai_1
*I *100:B I *D sky130_fd_sc_hd__nand3_1
*I *93:B I *D sky130_fd_sc_hd__xor2_1
*I *111:Q O *D sky130_fd_sc_hd__dfxtp_1
*CAP
1 *125:A 0.000245851
2 *99:A2 2.84039e-05
3 *97:A1 0.000543082
4 *105:A3 0.000102088
5 *100:B 0
6 *93:B 0
7 *111:Q 0
8 *43:37 0.000205503
9 *43:26 0.000329621
10 *43:18 0.000984616
11 *43:14 0.000671824
12 *43:4 0.000673943
13 *97:A1 *103:A1 0.000152333
14 *99:A2 *99:B1 5.7661e-06
15 *43:14 *99:B1 2.94709e-06
16 *43:14 *44:38 7.6644e-05
17 *43:18 *99:B1 4.57104e-06
18 counter[1] *125:A 0.000142307
19 counter[2] *125:A 0.000268409
20 *94:B *105:A3 4.1331e-06
21 *94:B *43:37 5.80217e-05
22 *95:A *43:26 3.18676e-05
23 *96:B *43:26 1.84421e-05
24 *101:A *43:18 9.90431e-05
25 *101:A *43:26 1.39726e-05
26 *101:B *43:26 3.18676e-05
27 *102:A *43:26 2.44318e-05
28 *102:B *43:26 0.000232399
29 *103:A2 *97:A1 0.000456343
30 *103:B1 *97:A1 0.000173083
31 *104:A2 *97:A1 0
32 *105:A2 *105:A3 7.60306e-05
33 *105:B1 *105:A3 0
34 *112:CLK *99:A2 3.50166e-05
35 *112:CLK *43:14 0.000227913
36 *112:D *43:26 0
37 *116:A *97:A1 1.01487e-05
38 *120:A *97:A1 9.25014e-06
39 *17:21 *97:A1 0.000235677
40 *18:14 *97:A1 5.33005e-05
41 *18:29 *97:A1 0.000177821
42 *20:8 *43:26 3.58638e-05
43 *40:12 *97:A1 0
44 *41:43 *105:A3 0
45 *42:14 *125:A 1.98839e-05
46 *42:24 *97:A1 0
47 *42:24 *125:A 5.48009e-05
48 *42:24 *43:14 0.000265453
49 *42:32 *99:A2 0
50 *42:32 *43:18 0.000146466
51 *42:32 *43:26 0.000750076
52 *42:36 *105:A3 1.17968e-05
53 *42:36 *43:37 8.39e-05
*RES
1 *111:Q *43:4 9.3 
2 *43:4 *43:14 15.2143 
3 *43:14 *43:18 7.5 
4 *43:18 *43:26 12.9643 
5 *43:26 *93:B 9.3 
6 *43:26 *43:37 7.28571 
7 *43:37 *100:B 13.8 
8 *43:37 *105:A3 16.05 
9 *43:18 *97:A1 26.4786 
10 *43:14 *99:A2 10.0321 
11 *43:4 *125:A 24.1571 
*END

*D_NET *44 0.00530804
*CONN
*I *118:A I *D sky130_fd_sc_hd__dlygate4sd3_1
*I *100:C I *D sky130_fd_sc_hd__nand3_1
*I *106:B I *D sky130_fd_sc_hd__nand2b_1
*I *126:A I *D sky130_fd_sc_hd__buf_2
*I *99:B1 I *D sky130_fd_sc_hd__a21o_1
*I *112:Q O *D sky130_fd_sc_hd__dfxtp_1
*CAP
1 *118:A 0
2 *100:C 0.000172202
3 *106:B 3.13714e-06
4 *126:A 0.000115384
5 *99:B1 0.000417503
6 *112:Q 0.000273009
7 *44:42 0.000279512
8 *44:38 0.00085023
9 *44:19 0.000861441
10 *44:6 0.000690512
11 *44:38 *103:A1 4.87953e-05
12 counter[2] *44:38 0
13 *94:A *100:C 5.33005e-05
14 *96:B *100:C 0.000113393
15 *98:A3 *44:38 5.30637e-06
16 *98:A3 *44:42 3.67257e-05
17 *99:A2 *99:B1 5.7661e-06
18 *105:B1 *100:C 0.000198698
19 *105:B1 *44:42 0
20 *106:A_N *106:B 1.28809e-05
21 *106:A_N *44:42 3.29331e-05
22 *112:CLK *99:B1 6.11621e-05
23 *112:CLK *44:38 0.000340781
24 *112:D *99:B1 3.08811e-05
25 *115:A *44:38 3.18676e-05
26 *17:8 *106:B 2.16129e-07
27 *17:8 *44:38 8.57023e-05
28 *17:8 *44:42 0.000268409
29 *26:8 *100:C 6.26177e-05
30 *41:12 *100:C 0
31 *41:43 *100:C 5.33334e-05
32 *42:32 *99:B1 0.000118179
33 *43:14 *99:B1 2.94709e-06
34 *43:14 *44:38 7.6644e-05
35 *43:18 *99:B1 4.57104e-06
*RES
1 *112:Q *44:6 12.3 
2 *44:6 *99:B1 15.5143 
3 *44:6 *44:19 4.5 
4 *44:19 *126:A 15.7464 
5 *44:19 *44:38 18.2679 
6 *44:38 *44:42 3.01786 
7 *44:42 *106:B 9.42946 
8 *44:42 *100:C 22.925 
9 *44:38 *118:A 9.3 
*END

*D_NET *45 0.00179241
*CONN
*I *127:A I *D sky130_fd_sc_hd__buf_2
*I *119:A I *D sky130_fd_sc_hd__dlygate4sd3_1
*I *107:B1 I *D sky130_fd_sc_hd__a31o_1
*I *113:Q O *D sky130_fd_sc_hd__dfxtp_1
*CAP
1 *127:A 7.62936e-05
2 *119:A 2.32277e-05
3 *107:B1 0.000143678
4 *113:Q 0.000120688
5 *45:14 0.00038952
6 *45:8 0.000419595
7 *89:A *107:B1 0
8 *89:A *119:A 4.27935e-05
9 *89:A *45:14 0.000186662
10 *108:B *107:B1 0
11 *109:A3 *107:B1 3.5707e-05
12 *109:B1 *45:14 0
13 *122:A *127:A 0.000153047
14 *122:A *45:14 0.000142875
15 *15:14 *107:B1 0
16 *37:25 *107:B1 4.80729e-05
17 *37:33 *107:B1 1.02504e-05
*RES
1 *113:Q *45:8 15.1571 
2 *45:8 *45:14 9.42857 
3 *45:14 *107:B1 21.1571 
4 *45:14 *119:A 9.83571 
5 *45:8 *127:A 15.7464 
*END

*D_NET *46 0.000806374
*CONN
*I *92:A1 I *D sky130_fd_sc_hd__o21ai_1
*I *117:X O *D sky130_fd_sc_hd__dlygate4sd3_1
*CAP
1 *92:A1 0.000381202
2 *117:X 0.000381202
3 *91:A1 *92:A1 1.31036e-05
4 *92:B1 *92:A1 3.08664e-05
*RES
1 *117:X *92:A1 23.4571 
*END

*D_NET *47 0.000595055
*CONN
*I *103:A1 I *D sky130_fd_sc_hd__a21oi_1
*I *118:X O *D sky130_fd_sc_hd__dlygate4sd3_1
*CAP
1 *103:A1 0.000121658
2 *118:X 0.000121658
3 *97:A1 *103:A1 0.000152333
4 *103:A2 *103:A1 0.000150611
5 *44:38 *103:A1 4.87953e-05
*RES
1 *118:X *103:A1 30.4929 
*END
