*SPEF "ieee 1481-1999"
*DESIGN "counter_dut"
*DATE "10:06:03 Wednesday December 04, 2024"
*VENDOR "The OpenROAD Project"
*PROGRAM "OpenROAD"
*VERSION "edf00dff99f6c40d67a30c0e22a8191c5d2ed9d6"
*DESIGN_FLOW "NAME_SCOPE LOCAL" "PIN_CAP NONE"
*DIVIDER /
*DELIMITER :
*BUS_DELIMITER []
*T_UNIT 1 NS
*C_UNIT 1 PF
*R_UNIT 1 OHM
*L_UNIT 1 HENRY

*NAME_MAP
*1 clk
*2 counter[0]
*3 counter[1]
*4 counter[2]
*5 counter[3]
*6 enable
*7 reset
*8 up_down
*11 _00_
*12 _01_
*13 _02_
*14 _03_
*15 _04_
*16 _05_
*17 _06_
*18 _07_
*19 _08_
*20 _09_
*21 _10_
*22 _11_
*23 _12_
*24 _13_
*25 _14_
*26 _15_
*27 _16_
*28 _17_
*29 _18_
*30 _19_
*31 _20_
*32 _21_
*33 _22_
*34 clknet_0_clk
*35 clknet_1_0__leaf_clk
*36 clknet_1_1__leaf_clk
*37 net1
*38 net2
*39 net3
*40 net4
*41 net5
*42 net6
*43 net7
*44 _23_
*45 _24_
*46 _25_
*47 _26_
*48 _27_
*49 _28_
*50 _29_
*51 _30_
*52 _31_
*53 _32_
*54 _33_
*55 _34_
*56 _35_
*57 _36_
*58 _37_
*59 _38_
*60 _39_
*61 _40_
*62 _41_
*63 _42_
*64 _43_
*65 _44_
*66 _45_
*67 _46_
*68 _47_
*69 _48_
*70 _49_
*71 clkbuf_0_clk
*72 clkbuf_1_0__f_clk
*73 clkbuf_1_1__f_clk
*74 input1
*75 input2
*76 input3
*77 output4
*78 output5
*79 output6
*80 output7

*PORTS
clk I
counter[0] O
counter[1] O
counter[2] O
counter[3] O
enable I
reset I
up_down I

*D_NET *1 0.00160377
*CONN
*P clk I
*I *71:A I *D sky130_fd_sc_hd__clkbuf_16
*CAP
1 clk 0.00069227
2 *71:A 0.00069227
3 *71:A *46:A 0
4 *71:A *54:A1 0
5 *71:A *72:A 0.000108626
6 *71:A *74:A 5.65933e-05
7 *71:A *76:A 5.40137e-05
*RES
1 clk *71:A 20.7217 
*END

*D_NET *2 0.000349789
*CONN
*P counter[0] O
*I *77:X O *D sky130_fd_sc_hd__buf_2
*CAP
1 counter[0] 0.000143028
2 *77:X 0.000143028
3 counter[0] counter[1] 6.37342e-05
*RES
1 *77:X counter[0] 17.9787 
*END

*D_NET *3 0.00053041
*CONN
*P counter[1] O
*I *78:X O *D sky130_fd_sc_hd__buf_2
*CAP
1 counter[1] 0.000200184
2 *78:X 0.000200184
3 counter[1] counter[2] 6.63071e-05
4 counter[1] *42:12 0
5 counter[0] counter[1] 6.37342e-05
*RES
1 *78:X counter[1] 19.8001 
*END

*D_NET *4 0.000630224
*CONN
*P counter[2] O
*I *79:X O *D sky130_fd_sc_hd__buf_2
*CAP
1 counter[2] 0.000281959
2 *79:X 0.000281959
3 counter[1] counter[2] 6.63071e-05
*RES
1 *79:X counter[2] 18.5706 
*END

*D_NET *5 0.000358245
*CONN
*P counter[3] O
*I *80:X O *D sky130_fd_sc_hd__buf_2
*CAP
1 counter[3] 0.000152116
2 *80:X 0.000152116
3 counter[3] *75:A 5.40137e-05
*RES
1 *80:X counter[3] 17.9787 
*END

*D_NET *6 0.000407652
*CONN
*P enable I
*I *74:A I *D sky130_fd_sc_hd__buf_1
*CAP
1 enable 0.000122703
2 *74:A 0.000122703
3 *74:A *70:CLK 5.16394e-05
4 *74:A *75:A 5.40137e-05
5 *71:A *74:A 5.65933e-05
*RES
1 enable *74:A 18.8174 
*END

*D_NET *7 0.000450383
*CONN
*P reset I
*I *75:A I *D sky130_fd_sc_hd__buf_1
*CAP
1 reset 0.000138307
2 *75:A 0.000138307
3 *75:A *70:CLK 6.57423e-05
4 counter[3] *75:A 5.40137e-05
5 *74:A *75:A 5.40137e-05
*RES
1 reset *75:A 19.1209 
*END

*D_NET *8 0.00048689
*CONN
*P up_down I
*I *76:A I *D sky130_fd_sc_hd__buf_1
*CAP
1 up_down 0.000216438
2 *76:A 0.000216438
3 *76:A *63:A_N 0
4 *71:A *76:A 5.40137e-05
*RES
1 up_down *76:A 19.7281 
*END

*D_NET *11 0.000381554
*CONN
*I *67:D I *D sky130_fd_sc_hd__dfxtp_2
*I *49:Y O *D sky130_fd_sc_hd__o21ai_1
*CAP
1 *67:D 0.000154701
2 *49:Y 0.000154701
3 *67:D *60:A2 0
4 *67:D *36:10 1.6297e-05
5 *67:D *40:8 5.5855e-05
*RES
1 *49:Y *67:D 30.9438 
*END

*D_NET *12 0.000775331
*CONN
*I *68:D I *D sky130_fd_sc_hd__dfxtp_1
*I *55:X O *D sky130_fd_sc_hd__a31o_1
*CAP
1 *68:D 0.000276399
2 *55:X 0.000276399
3 *68:D *55:A3 0.000195109
4 *68:D *63:A_N 0
5 *68:D *39:6 1.23419e-06
6 *68:D *39:19 2.619e-05
*RES
1 *55:X *68:D 34.1937 
*END

*D_NET *13 0.000627428
*CONN
*I *69:D I *D sky130_fd_sc_hd__dfxtp_1
*I *61:Y O *D sky130_fd_sc_hd__o21ai_1
*CAP
1 *69:D 0.000205348
2 *61:Y 0.000205348
3 *69:D *60:A1 2.73185e-05
4 *69:D *60:A2 6.79641e-05
5 *69:D *61:A2 2.27416e-05
6 *69:D *61:B1 6.89249e-05
7 *69:D *72:A 0
8 *69:D *40:80 0
9 *69:D *41:44 2.97829e-05
*RES
1 *61:Y *69:D 23.7429 
*END

*D_NET *14 0.0007197
*CONN
*I *70:D I *D sky130_fd_sc_hd__dfxtp_1
*I *66:X O *D sky130_fd_sc_hd__a31o_1
*CAP
1 *70:D 0.000268942
2 *66:X 0.000268942
3 *70:D *47:B 0
4 *70:D *66:A2 1.80376e-05
5 *70:D *80:A 0
6 *70:D *15:38 0.000125057
7 *70:D *18:6 3.87216e-05
8 *70:D *31:12 0
9 *70:D *38:8 0
*RES
1 *66:X *70:D 24.533 
*END

*D_NET *15 0.00344854
*CONN
*I *66:A1 I *D sky130_fd_sc_hd__a31o_1
*I *45:B I *D sky130_fd_sc_hd__nand2_1
*I *55:A2 I *D sky130_fd_sc_hd__a31o_1
*I *46:A I *D sky130_fd_sc_hd__nor2_1
*I *44:Y O *D sky130_fd_sc_hd__inv_2
*CAP
1 *66:A1 0
2 *45:B 6.81724e-05
3 *55:A2 0
4 *46:A 0.000262288
5 *44:Y 7.29236e-05
6 *15:38 0.00044812
7 *15:10 0.000332617
8 *15:8 0.000523199
9 *45:B *54:B1 2.74192e-05
10 *45:B *66:A2 1.04232e-05
11 *45:B *17:34 0.00010096
12 *45:B *18:6 0
13 *45:B *18:15 0
14 *46:A *50:A 1.74352e-05
15 *46:A *50:B 0.000191776
16 *46:A *54:A1 0
17 *46:A *55:A3 0.000574557
18 *46:A *62:A1 0
19 *46:A *39:19 9.76689e-05
20 *46:A *39:23 0
21 *15:8 *31:12 0.000279594
22 *15:8 *37:8 2.98016e-05
23 *15:10 *54:A1 0
24 *15:10 *70:CLK 0
25 *15:10 *37:12 2.09897e-05
26 *15:10 *37:16 0.000110307
27 *15:38 *54:B1 5.52302e-05
28 *15:38 *66:A2 4.58194e-05
29 *15:38 *70:CLK 0
30 *15:38 *80:A 0
31 *15:38 *37:16 5.41794e-05
32 *15:38 *43:8 0
33 *70:D *15:38 0.000125057
34 *71:A *46:A 0
*RES
1 *44:Y *15:8 16.3893 
2 *15:8 *15:10 1.94643 
3 *15:10 *46:A 22.675 
4 *15:10 *55:A2 13.8 
5 *15:8 *15:38 12.75 
6 *15:38 *45:B 11.0857 
7 *15:38 *66:A1 9.3 
*END

*D_NET *16 0.00221117
*CONN
*I *49:A2 I *D sky130_fd_sc_hd__o21ai_1
*I *61:A1 I *D sky130_fd_sc_hd__o21ai_1
*I *45:Y O *D sky130_fd_sc_hd__nand2_1
*CAP
1 *49:A2 0.00017935
2 *61:A1 9.39095e-05
3 *45:Y 0.000133259
4 *16:8 0.000406519
5 *49:A2 *49:B1 0.000393949
6 *49:A2 *63:B 6.57914e-05
7 *49:A2 *37:42 9.60939e-05
8 *49:A2 *40:8 0.00011837
9 *49:A2 *40:16 5.94433e-06
10 *49:A2 *40:80 3.48705e-05
11 *61:A1 *62:B1 1.02504e-05
12 *61:A1 *65:C 9.25014e-06
13 *61:A1 *17:10 0
14 *61:A1 *17:19 0
15 *61:A1 *30:8 0.000175512
16 *61:A1 *40:16 7.90803e-05
17 *61:A1 *40:22 2.23987e-05
18 *16:8 *45:A 7.80929e-05
19 *16:8 *54:A1 0
20 *16:8 *54:B1 0
21 *16:8 *65:C 0.000166269
22 *16:8 *37:42 1.41029e-05
23 *16:8 *40:16 0.000128161
*RES
1 *45:Y *16:8 17.5679 
2 *16:8 *61:A1 16.6571 
3 *16:8 *49:A2 19.675 
*END

*D_NET *17 0.00448198
*CONN
*I *54:B1 I *D sky130_fd_sc_hd__a21o_1
*I *66:B1 I *D sky130_fd_sc_hd__a31o_1
*I *48:B1 I *D sky130_fd_sc_hd__a21oi_1
*I *60:B1 I *D sky130_fd_sc_hd__a21oi_1
*I *46:Y O *D sky130_fd_sc_hd__nor2_1
*CAP
1 *54:B1 0.000206486
2 *66:B1 0
3 *48:B1 1.32426e-05
4 *60:B1 0
5 *46:Y 0.000324172
6 *17:34 0.000414437
7 *17:19 0.000395349
8 *17:10 0.000498327
9 *48:B1 *48:A1 1.24368e-05
10 *48:B1 *18:15 5.52238e-05
11 *48:B1 *40:16 2.28499e-05
12 *54:B1 *45:A 0
13 *54:B1 *54:A1 5.59013e-05
14 *54:B1 *54:A2 5.7661e-06
15 *54:B1 *65:D 5.68211e-05
16 *54:B1 *66:A3 0.000177948
17 *54:B1 *18:6 5.23792e-05
18 *54:B1 *43:8 0
19 *17:10 *50:A 0.000312209
20 *17:10 *52:A 2.60984e-05
21 *17:10 *52:B 5.71472e-05
22 *17:10 *57:B 7.49387e-06
23 *17:10 *57:C 0.000561813
24 *17:10 *59:B 8.48609e-05
25 *17:10 *61:A2 3.20153e-05
26 *17:10 *62:B1 0
27 *17:10 *40:30 0
28 *17:10 *42:41 0.000216771
29 *17:19 *45:A 1.99099e-05
30 *17:19 *49:B1 0.000130583
31 *17:19 *63:B 0.000167684
32 *17:19 *73:A 0.000107334
33 *17:19 *37:42 2.49484e-05
34 *17:19 *40:16 1.46717e-05
35 *17:19 *42:41 1.02504e-05
36 *17:34 *45:A 0.000148381
37 *17:34 *73:A 8.48609e-05
38 *17:34 *18:15 0
39 *45:B *54:B1 2.74192e-05
40 *45:B *17:34 0.00010096
41 *61:A1 *17:10 0
42 *61:A1 *17:19 0
43 *15:38 *54:B1 5.52302e-05
44 *16:8 *54:B1 0
*RES
1 *46:Y *17:10 24.4429 
2 *17:10 *60:B1 13.8 
3 *17:10 *17:19 4.98214 
4 *17:19 *48:B1 14.3357 
5 *17:19 *17:34 10.0536 
6 *17:34 *66:B1 9.3 
7 *17:34 *54:B1 23.3357 
*END

*D_NET *18 0.00276796
*CONN
*I *60:A2 I *D sky130_fd_sc_hd__a21oi_1
*I *48:A2 I *D sky130_fd_sc_hd__a21oi_1
*I *54:A2 I *D sky130_fd_sc_hd__a21o_1
*I *47:Y O *D sky130_fd_sc_hd__nor2_1
*CAP
1 *60:A2 0.000312363
2 *48:A2 1.99857e-05
3 *54:A2 1.79444e-05
4 *47:Y 0.000202723
5 *18:15 0.000520899
6 *18:6 0.000409218
7 *48:A2 *48:A1 1.04232e-05
8 *54:A2 *65:D 1.04232e-05
9 *60:A2 *69:CLK 0.000333824
10 *60:A2 *36:10 4.16418e-05
11 *60:A2 *40:8 2.97829e-05
12 *60:A2 *40:80 8.46044e-06
13 *18:6 *47:A 4.72818e-05
14 *18:6 *64:B1 0.000228558
15 *18:6 *65:D 0.000107031
16 *18:6 *66:A2 0.000105921
17 *18:6 *31:12 1.74352e-05
18 *18:15 *45:A 0
19 *18:15 *48:A1 2.28598e-05
20 *18:15 *65:B 2.6621e-05
21 *18:15 *65:D 2.44318e-05
22 *18:15 *66:A3 1.39726e-05
23 *18:15 *40:8 9.99644e-06
24 *18:15 *40:16 2.61099e-05
25 *45:B *18:6 0
26 *45:B *18:15 0
27 *48:B1 *18:15 5.52238e-05
28 *54:B1 *54:A2 5.7661e-06
29 *54:B1 *18:6 5.23792e-05
30 *67:D *60:A2 0
31 *69:D *60:A2 6.79641e-05
32 *70:D *18:6 3.87216e-05
33 *17:34 *18:15 0
*RES
1 *47:Y *18:6 15.175 
2 *18:6 *54:A2 9.72857 
3 *18:6 *18:15 3.82143 
4 *18:15 *48:A2 9.72857 
5 *18:15 *60:A2 26.0143 
*END

*D_NET *19 0.00114522
*CONN
*I *49:B1 I *D sky130_fd_sc_hd__o21ai_1
*I *48:Y O *D sky130_fd_sc_hd__a21oi_1
*CAP
1 *49:B1 0.000130789
2 *48:Y 0.000130789
3 *49:B1 *63:B 9.60875e-05
4 *49:B1 *37:42 8.32242e-05
5 *49:B1 *40:16 2.39779e-05
6 *49:B1 *40:80 0.000155817
7 *49:A2 *49:B1 0.000393949
8 *17:19 *49:B1 0.000130583
*RES
1 *48:Y *49:B1 33.0643 
*END

*D_NET *20 0.00098077
*CONN
*I *51:B I *D sky130_fd_sc_hd__or2_1
*I *52:B I *D sky130_fd_sc_hd__nand2_1
*I *50:X O *D sky130_fd_sc_hd__xor2_1
*CAP
1 *51:B 0.000101703
2 *52:B 3.64511e-05
3 *50:X 0.000167155
4 *20:12 0.000305308
5 *51:B *50:B 3.13225e-05
6 *51:B *53:A 0
7 *51:B *53:B 2.8266e-06
8 *51:B *57:B 2.97756e-05
9 *51:B *39:23 0.000105696
10 *51:B *41:38 9.11365e-06
11 *52:B *46:B 1.04232e-05
12 *52:B *50:A 2.14757e-05
13 *52:B *52:A 3.01979e-05
14 *52:B *57:C 9.7049e-06
15 *52:B *39:49 2.50324e-05
16 *20:12 *50:B 4.46186e-06
17 *20:12 *53:B 2.38236e-05
18 *20:12 *55:A3 9.15186e-06
19 *17:10 *52:B 5.71472e-05
*RES
1 *50:X *20:12 16.3179 
2 *20:12 *52:B 15.175 
3 *20:12 *51:B 16.05 
*END

*D_NET *21 0.00157492
*CONN
*I *59:A I *D sky130_fd_sc_hd__xnor2_1
*I *53:A I *D sky130_fd_sc_hd__nand2_1
*I *51:X O *D sky130_fd_sc_hd__or2_1
*CAP
1 *59:A 0.000111124
2 *53:A 0.00030687
3 *51:X 0
4 *21:4 0.000417993
5 *53:A *50:A 2.24736e-05
6 *53:A *53:B 0.000320798
7 *53:A *55:A3 3.18676e-05
8 *53:A *57:B 8.15095e-05
9 *53:A *40:30 4.29654e-05
10 *53:A *41:38 9.25014e-06
11 *59:A *56:A1 9.60939e-05
12 *59:A *57:B 1.34703e-05
13 *59:A *41:44 0.000120509
14 *51:B *53:A 0
*RES
1 *51:X *21:4 9.3 
2 *21:4 *53:A 25.3893 
3 *21:4 *59:A 12.2107 
*END

*D_NET *22 0.000651406
*CONN
*I *53:B I *D sky130_fd_sc_hd__nand2_1
*I *52:Y O *D sky130_fd_sc_hd__nand2_1
*CAP
1 *53:B 0.000151979
2 *52:Y 0.000151979
3 *53:B *55:A3 0
4 *51:B *53:B 2.8266e-06
5 *53:A *53:B 0.000320798
6 *20:12 *53:B 2.38236e-05
*RES
1 *52:Y *53:B 31.5107 
*END

*D_NET *23 0.00166713
*CONN
*I *55:A3 I *D sky130_fd_sc_hd__a31o_1
*I *53:Y O *D sky130_fd_sc_hd__nand2_1
*CAP
1 *55:A3 0.000391964
2 *53:Y 0.000391964
3 *55:A3 *50:A 7.25146e-05
4 *55:A3 *50:B 0
5 *55:A3 *63:A_N 0
6 *46:A *55:A3 0.000574557
7 *53:A *55:A3 3.18676e-05
8 *53:B *55:A3 0
9 *68:D *55:A3 0.000195109
10 *20:12 *55:A3 9.15186e-06
*RES
1 *53:Y *55:A3 38.7071 
*END

*D_NET *24 0.00059452
*CONN
*I *55:B1 I *D sky130_fd_sc_hd__a31o_1
*I *54:X O *D sky130_fd_sc_hd__a21o_1
*CAP
1 *55:B1 0.000114244
2 *54:X 0.000114244
3 *55:B1 *54:A1 0
4 *55:B1 *63:B 0.000188586
5 *55:B1 *64:A2 0.00014864
6 *55:B1 *31:12 0
7 *55:B1 *37:42 2.88067e-05
*RES
1 *54:X *55:B1 31.0107 
*END

*D_NET *25 0.000450338
*CONN
*I *58:A I *D sky130_fd_sc_hd__nand2_1
*I *56:X O *D sky130_fd_sc_hd__a21o_1
*CAP
1 *58:A 0.000146627
2 *56:X 0.000146627
3 *58:A *56:A1 6.09963e-05
4 *58:A *57:C 9.60875e-05
5 *58:A *58:B 0
*RES
1 *56:X *58:A 21.725 
*END

*D_NET *26 0.000945817
*CONN
*I *62:B1 I *D sky130_fd_sc_hd__o31ai_1
*I *58:B I *D sky130_fd_sc_hd__nand2_1
*I *57:Y O *D sky130_fd_sc_hd__nand3_1
*CAP
1 *62:B1 0.000119126
2 *58:B 6.21288e-05
3 *57:Y 0
4 *26:4 0.000181254
5 *58:B *52:A 0
6 *58:B *56:A1 1.1979e-05
7 *58:B *57:B 3.57366e-05
8 *58:B *57:C 5.33433e-05
9 *62:B1 *59:B 5.80217e-05
10 *62:B1 *61:A2 4.81157e-05
11 *62:B1 *40:22 8.32242e-05
12 *62:B1 *40:24 0.000176234
13 *62:B1 *40:30 0.000106403
14 *58:A *58:B 0
15 *61:A1 *62:B1 1.02504e-05
16 *17:10 *62:B1 0
*RES
1 *57:Y *26:4 9.3 
2 *26:4 *58:B 11.1036 
3 *26:4 *62:B1 22.675 
*END

*D_NET *27 0.000357422
*CONN
*I *59:B I *D sky130_fd_sc_hd__xnor2_1
*I *58:Y O *D sky130_fd_sc_hd__nand2_1
*CAP
1 *59:B 6.52072e-05
2 *58:Y 6.52072e-05
3 *59:B *56:A1 2.89016e-05
4 *59:B *41:44 5.52238e-05
5 *62:B1 *59:B 5.80217e-05
6 *17:10 *59:B 8.48609e-05
*RES
1 *58:Y *59:B 30.0821 
*END

*D_NET *28 0.000297646
*CONN
*I *61:A2 I *D sky130_fd_sc_hd__o21ai_1
*I *59:Y O *D sky130_fd_sc_hd__xnor2_1
*CAP
1 *61:A2 4.69067e-05
2 *59:Y 4.69067e-05
3 *61:A2 *41:44 0.00010096
4 *62:B1 *61:A2 4.81157e-05
5 *69:D *61:A2 2.27416e-05
6 *17:10 *61:A2 3.20153e-05
*RES
1 *59:Y *61:A2 29.5821 
*END

*D_NET *29 0.000147498
*CONN
*I *61:B1 I *D sky130_fd_sc_hd__o21ai_1
*I *60:Y O *D sky130_fd_sc_hd__a21oi_1
*CAP
1 *61:B1 3.92866e-05
2 *60:Y 3.92866e-05
3 *61:B1 *54:A1 0
4 *61:B1 *72:A 0
5 *69:D *61:B1 6.89249e-05
*RES
1 *60:Y *61:B1 19.5643 
*END

*D_NET *30 0.00202684
*CONN
*I *65:C I *D sky130_fd_sc_hd__nand4_1
*I *64:A2 I *D sky130_fd_sc_hd__a31o_1
*I *62:Y O *D sky130_fd_sc_hd__o31ai_1
*CAP
1 *65:C 6.51272e-05
2 *64:A2 0.000193166
3 *62:Y 5.47772e-05
4 *30:8 0.000313071
5 *64:A2 *54:A1 0
6 *64:A2 *63:B 0.000163519
7 *64:A2 *65:B 1.19402e-05
8 *64:A2 *37:16 8.93017e-05
9 *64:A2 *37:42 0.000449223
10 *65:C *54:A1 5.66564e-05
11 *30:8 *54:A1 2.47093e-05
12 *30:8 *40:22 0.000105682
13 *55:B1 *64:A2 0.00014864
14 *61:A1 *65:C 9.25014e-06
15 *61:A1 *30:8 0.000175512
16 *16:8 *65:C 0.000166269
*RES
1 *62:Y *30:8 16.05 
2 *30:8 *64:A2 29.6393 
3 *30:8 *65:C 16.05 
*END

*D_NET *31 0.00199378
*CONN
*I *65:D I *D sky130_fd_sc_hd__nand4_1
*I *64:A3 I *D sky130_fd_sc_hd__a31o_1
*I *63:Y O *D sky130_fd_sc_hd__nand2b_1
*CAP
1 *65:D 0.000105877
2 *64:A3 0
3 *63:Y 0.000231649
4 *31:12 0.000337526
5 *65:D *64:B1 9.90367e-05
6 *65:D *65:B 0.000135809
7 *65:D *66:A3 0.000183726
8 *65:D *37:42 5.94896e-06
9 *31:12 *47:A 0.0001399
10 *31:12 *47:B 7.32955e-05
11 *31:12 *63:B 0
12 *31:12 *64:B1 3.53079e-05
13 *31:12 *65:B 0
14 *31:12 *37:8 8.07313e-05
15 *31:12 *37:42 2.51343e-06
16 *31:12 *38:8 6.67226e-05
17 *54:A2 *65:D 1.04232e-05
18 *54:B1 *65:D 5.68211e-05
19 *55:B1 *31:12 0
20 *70:D *31:12 0
21 *15:8 *31:12 0.000279594
22 *18:6 *65:D 0.000107031
23 *18:6 *31:12 1.74352e-05
24 *18:15 *65:D 2.44318e-05
*RES
1 *63:Y *31:12 17.4786 
2 *31:12 *64:A3 9.3 
3 *31:12 *65:D 13.55 
*END

*D_NET *32 0.000607963
*CONN
*I *66:A2 I *D sky130_fd_sc_hd__a31o_1
*I *64:X O *D sky130_fd_sc_hd__a31o_1
*CAP
1 *66:A2 0.000131871
2 *64:X 0.000131871
3 *66:A2 *66:A3 0.000106403
4 *66:A2 *43:8 5.7616e-05
5 *45:B *66:A2 1.04232e-05
6 *70:D *66:A2 1.80376e-05
7 *15:38 *66:A2 4.58194e-05
8 *18:6 *66:A2 0.000105921
*RES
1 *64:X *66:A2 31.2607 
*END

*D_NET *33 0.00104621
*CONN
*I *66:A3 I *D sky130_fd_sc_hd__a31o_1
*I *65:Y O *D sky130_fd_sc_hd__nand4_1
*CAP
1 *66:A3 0.000137778
2 *65:Y 0.000137778
3 *66:A3 *54:A1 2.16719e-05
4 *66:A3 *65:B 0.000244088
5 *66:A3 *43:8 2.28428e-05
6 *54:B1 *66:A3 0.000177948
7 *65:D *66:A3 0.000183726
8 *66:A2 *66:A3 0.000106403
9 *18:15 *66:A3 1.39726e-05
*RES
1 *65:Y *66:A3 32.6357 
*END

*D_NET *34 0.00203902
*CONN
*I *73:A I *D sky130_fd_sc_hd__clkbuf_16
*I *72:A I *D sky130_fd_sc_hd__clkbuf_16
*I *71:X O *D sky130_fd_sc_hd__clkbuf_16
*CAP
1 *73:A 0.000166238
2 *72:A 0.000262677
3 *71:X 0
4 *34:4 0.000428915
5 *72:A *54:A1 4.20435e-05
6 *72:A *60:A1 5.39629e-06
7 *72:A *62:A1 6.78055e-06
8 *72:A *62:A2 0
9 *72:A *62:A3 0
10 *72:A *63:B 0.000113083
11 *72:A *40:22 0.000136958
12 *72:A *40:80 0.000211243
13 *72:A *41:66 0
14 *73:A *63:B 5.41794e-05
15 *73:A *69:CLK 0.000188641
16 *73:A *36:10 0.000122047
17 *61:B1 *72:A 0
18 *69:D *72:A 0
19 *71:A *72:A 0.000108626
20 *17:19 *73:A 0.000107334
21 *17:34 *73:A 8.48609e-05
*RES
1 *71:X *34:4 9.3 
2 *34:4 *72:A 25.1036 
3 *34:4 *73:A 23.5857 
*END

*D_NET *35 0.00129683
*CONN
*I *70:CLK I *D sky130_fd_sc_hd__dfxtp_1
*I *68:CLK I *D sky130_fd_sc_hd__dfxtp_1
*I *72:X O *D sky130_fd_sc_hd__clkbuf_16
*CAP
1 *70:CLK 0.00034084
2 *68:CLK 0.000134137
3 *72:X 0
4 *35:6 0.000474977
5 *68:CLK *63:A_N 0.000128371
6 *68:CLK *39:6 1.58213e-06
7 *70:CLK *63:A_N 9.95454e-05
8 *74:A *70:CLK 5.16394e-05
9 *75:A *70:CLK 6.57423e-05
10 *15:10 *70:CLK 0
11 *15:38 *70:CLK 0
*RES
1 *72:X *35:6 13.8 
2 *35:6 *68:CLK 17.1929 
3 *35:6 *70:CLK 20.9071 
*END

*D_NET *36 0.00176633
*CONN
*I *67:CLK I *D sky130_fd_sc_hd__dfxtp_2
*I *69:CLK I *D sky130_fd_sc_hd__dfxtp_1
*I *73:X O *D sky130_fd_sc_hd__clkbuf_16
*CAP
1 *67:CLK 0
2 *69:CLK 0.00017244
3 *73:X 0.000334575
4 *36:10 0.000507015
5 *69:CLK *63:B 4.7024e-05
6 *69:CLK *42:41 2.8266e-06
7 *36:10 *40:8 0
8 *60:A2 *69:CLK 0.000333824
9 *60:A2 *36:10 4.16418e-05
10 *67:D *36:10 1.6297e-05
11 *73:A *69:CLK 0.000188641
12 *73:A *36:10 0.000122047
*RES
1 *73:X *36:10 20.9071 
2 *36:10 *69:CLK 19.4429 
3 *36:10 *67:CLK 13.8 
*END

*D_NET *37 0.00346208
*CONN
*I *55:A1 I *D sky130_fd_sc_hd__a31o_1
*I *45:A I *D sky130_fd_sc_hd__nand2_1
*I *65:A I *D sky130_fd_sc_hd__nand4_1
*I *64:A1 I *D sky130_fd_sc_hd__a31o_1
*I *47:A I *D sky130_fd_sc_hd__nor2_1
*I *74:X O *D sky130_fd_sc_hd__buf_1
*CAP
1 *55:A1 0
2 *45:A 9.20574e-05
3 *65:A 0
4 *64:A1 0
5 *47:A 5.45065e-05
6 *74:X 0.000192662
7 *37:42 0.000377386
8 *37:16 9.83946e-05
9 *37:12 0.000339542
10 *37:8 0.000202987
11 *47:A *64:B1 5.33005e-05
12 *37:8 *63:B 0.000267082
13 *37:8 *38:8 0
14 *37:42 *63:B 8.43535e-06
15 *37:42 *65:B 0.000134808
16 *37:42 *40:16 0.000117175
17 *49:A2 *37:42 9.60939e-05
18 *49:B1 *37:42 8.32242e-05
19 *54:B1 *45:A 0
20 *55:B1 *37:42 2.88067e-05
21 *64:A2 *37:16 8.93017e-05
22 *64:A2 *37:42 0.000449223
23 *65:D *37:42 5.94896e-06
24 *15:8 *37:8 2.98016e-05
25 *15:10 *37:12 2.09897e-05
26 *15:10 *37:16 0.000110307
27 *15:38 *37:16 5.41794e-05
28 *16:8 *45:A 7.80929e-05
29 *16:8 *37:42 1.41029e-05
30 *17:19 *45:A 1.99099e-05
31 *17:19 *37:42 2.49484e-05
32 *17:34 *45:A 0.000148381
33 *18:6 *47:A 4.72818e-05
34 *18:15 *45:A 0
35 *31:12 *47:A 0.0001399
36 *31:12 *37:8 8.07313e-05
37 *31:12 *37:42 2.51343e-06
*RES
1 *74:X *37:8 14.3714 
2 *37:8 *37:12 4.77679 
3 *37:12 *37:16 6.59821 
4 *37:16 *47:A 11.0857 
5 *37:16 *64:A1 9.3 
6 *37:12 *37:42 17.6339 
7 *37:42 *65:A 13.8 
8 *37:42 *45:A 16.8893 
9 *37:8 *55:A1 9.3 
*END

*D_NET *38 0.000424404
*CONN
*I *47:B I *D sky130_fd_sc_hd__nor2_1
*I *44:A I *D sky130_fd_sc_hd__inv_2
*I *75:X O *D sky130_fd_sc_hd__buf_1
*CAP
1 *47:B 4.58479e-05
2 *44:A 0
3 *75:X 9.63452e-05
4 *38:8 0.000142193
5 *70:D *47:B 0
6 *70:D *38:8 0
7 *31:12 *47:B 7.32955e-05
8 *31:12 *38:8 6.67226e-05
9 *37:8 *38:8 0
*RES
1 *75:X *38:8 11.3893 
2 *38:8 *44:A 9.3 
3 *38:8 *47:B 10.6571 
*END

*D_NET *39 0.00286671
*CONN
*I *52:A I *D sky130_fd_sc_hd__nand2_1
*I *46:B I *D sky130_fd_sc_hd__nor2_1
*I *62:A1 I *D sky130_fd_sc_hd__o31ai_1
*I *51:A I *D sky130_fd_sc_hd__or2_1
*I *63:A_N I *D sky130_fd_sc_hd__nand2b_1
*I *76:X O *D sky130_fd_sc_hd__buf_1
*CAP
1 *52:A 4.64972e-05
2 *46:B 1.24123e-05
3 *62:A1 0.000205556
4 *51:A 5.72094e-05
5 *63:A_N 0.00026027
6 *76:X 5.44788e-05
7 *39:49 0.000117716
8 *39:23 0.000311103
9 *39:19 0.000349266
10 *39:6 0.000556871
11 *51:A *50:B 6.05161e-06
12 *51:A *41:23 7.32272e-05
13 *52:A *57:B 5.922e-05
14 *52:A *57:C 1.04232e-05
15 *52:A *41:23 2.65105e-05
16 *62:A1 *54:A1 0
17 *62:A1 *63:B 0
18 *62:A1 *40:22 0
19 *62:A1 *41:38 0
20 *62:A1 *41:66 6.05161e-06
21 *39:19 *50:A 1.15172e-05
22 *39:19 *50:B 2.98004e-05
23 *39:23 *50:B 8.15095e-05
24 *39:23 *41:38 0
25 *39:49 *50:A 2.87555e-06
26 *39:49 *50:B 3.69047e-06
27 *39:49 *57:B 0
28 *39:49 *41:23 2.56358e-05
29 *46:A *62:A1 0
30 *46:A *39:19 9.76689e-05
31 *46:A *39:23 0
32 *51:B *39:23 0.000105696
33 *52:B *46:B 1.04232e-05
34 *52:B *52:A 3.01979e-05
35 *52:B *39:49 2.50324e-05
36 *55:A3 *63:A_N 0
37 *58:B *52:A 0
38 *68:CLK *63:A_N 0.000128371
39 *68:CLK *39:6 1.58213e-06
40 *68:D *63:A_N 0
41 *68:D *39:6 1.23419e-06
42 *68:D *39:19 2.619e-05
43 *70:CLK *63:A_N 9.95454e-05
44 *72:A *62:A1 6.78055e-06
45 *76:A *63:A_N 0
46 *17:10 *52:A 2.60984e-05
*RES
1 *76:X *39:6 10.2464 
2 *39:6 *63:A_N 24.8 
3 *39:6 *39:19 5.05357 
4 *39:19 *39:23 6.14286 
5 *39:23 *51:A 15.1571 
6 *39:23 *62:A1 18.425 
7 *39:19 *39:49 1.5 
8 *39:49 *46:B 9.72857 
9 *39:49 *52:A 11.0857 
*END

*D_NET *40 0.00683985
*CONN
*I *48:A1 I *D sky130_fd_sc_hd__a21oi_1
*I *77:A I *D sky130_fd_sc_hd__buf_2
*I *49:A1 I *D sky130_fd_sc_hd__o21ai_1
*I *62:A2 I *D sky130_fd_sc_hd__o31ai_1
*I *56:A1 I *D sky130_fd_sc_hd__a21o_1
*I *57:A I *D sky130_fd_sc_hd__nand3_1
*I *50:A I *D sky130_fd_sc_hd__xor2_1
*I *67:Q O *D sky130_fd_sc_hd__dfxtp_2
*CAP
1 *48:A1 4.3435e-05
2 *77:A 0.000156604
3 *49:A1 0
4 *62:A2 3.64251e-05
5 *56:A1 0.000207667
6 *57:A 0
7 *50:A 0.000335574
8 *67:Q 0.000265386
9 *40:80 0.000382303
10 *40:30 0.000449843
11 *40:24 0.000405462
12 *40:22 0.000230211
13 *40:16 0.000467927
14 *40:8 0.000440789
15 *48:A1 *65:B 0
16 *50:A *50:B 0.000186669
17 *56:A1 *57:B 2.51343e-06
18 *56:A1 *57:C 0
19 *56:A1 *41:44 5.01368e-05
20 *56:A1 *42:22 0.000111383
21 *56:A1 *42:26 0.000116039
22 *62:A2 *62:A3 4.38128e-05
23 *62:A2 *41:44 3.39135e-05
24 *62:A2 *41:66 3.52408e-05
25 *77:A *42:12 0
26 *40:8 *65:B 0
27 *40:22 *54:A1 0.00010127
28 *40:22 *63:B 0.000135028
29 *40:22 *41:66 0
30 *40:24 *41:38 0
31 *40:24 *41:66 0
32 *40:30 *41:38 0
33 *40:80 *63:B 0.000181796
34 *46:A *50:A 1.74352e-05
35 *48:A2 *48:A1 1.04232e-05
36 *48:B1 *48:A1 1.24368e-05
37 *48:B1 *40:16 2.28499e-05
38 *49:A2 *40:8 0.00011837
39 *49:A2 *40:16 5.94433e-06
40 *49:A2 *40:80 3.48705e-05
41 *49:B1 *40:16 2.39779e-05
42 *49:B1 *40:80 0.000155817
43 *52:B *50:A 2.14757e-05
44 *53:A *50:A 2.24736e-05
45 *53:A *40:30 4.29654e-05
46 *55:A3 *50:A 7.25146e-05
47 *58:A *56:A1 6.09963e-05
48 *58:B *56:A1 1.1979e-05
49 *59:A *56:A1 9.60939e-05
50 *59:B *56:A1 2.89016e-05
51 *60:A2 *40:8 2.97829e-05
52 *60:A2 *40:80 8.46044e-06
53 *61:A1 *40:16 7.90803e-05
54 *61:A1 *40:22 2.23987e-05
55 *62:A1 *40:22 0
56 *62:B1 *40:22 8.32242e-05
57 *62:B1 *40:24 0.000176234
58 *62:B1 *40:30 0.000106403
59 *67:D *40:8 5.5855e-05
60 *69:D *40:80 0
61 *72:A *62:A2 0
62 *72:A *40:22 0.000136958
63 *72:A *40:80 0.000211243
64 *16:8 *40:16 0.000128161
65 *17:10 *50:A 0.000312209
66 *17:10 *40:30 0
67 *17:19 *40:16 1.46717e-05
68 *18:15 *48:A1 2.28598e-05
69 *18:15 *40:8 9.99644e-06
70 *18:15 *40:16 2.61099e-05
71 *30:8 *40:22 0.000105682
72 *36:10 *40:8 0
73 *37:42 *40:16 0.000117175
74 *39:19 *50:A 1.15172e-05
75 *39:49 *50:A 2.87555e-06
*RES
1 *67:Q *40:8 17.2464 
2 *40:8 *40:16 12.9107 
3 *40:16 *40:22 8.71429 
4 *40:22 *40:24 2.25 
5 *40:24 *40:30 2.60714 
6 *40:30 *50:A 22.4071 
7 *40:30 *57:A 13.8 
8 *40:24 *56:A1 19.4071 
9 *40:22 *62:A2 14.9518 
10 *40:16 *40:80 6.30357 
11 *40:80 *49:A1 9.3 
12 *40:80 *77:A 12.3 
13 *40:8 *48:A1 10.6929 
*END

*D_NET *41 0.00464077
*CONN
*I *62:A3 I *D sky130_fd_sc_hd__o31ai_1
*I *54:A1 I *D sky130_fd_sc_hd__a21o_1
*I *78:A I *D sky130_fd_sc_hd__buf_2
*I *56:A2 I *D sky130_fd_sc_hd__a21o_1
*I *57:B I *D sky130_fd_sc_hd__nand3_1
*I *50:B I *D sky130_fd_sc_hd__xor2_1
*I *68:Q O *D sky130_fd_sc_hd__dfxtp_1
*CAP
1 *62:A3 1.64039e-05
2 *54:A1 0.000271924
3 *78:A 0.000208215
4 *56:A2 2.06112e-05
5 *57:B 0.000102261
6 *50:B 0.000127547
7 *68:Q 0
8 *41:66 0.00040266
9 *41:44 0.000498933
10 *41:38 0.000474999
11 *41:23 0.000253578
12 *41:4 0.000188305
13 *56:A2 *42:22 3.99614e-06
14 *57:B *57:C 4.01768e-05
15 *78:A *42:12 2.09915e-05
16 *78:A *42:22 0.000198768
17 *41:44 *42:22 4.69993e-05
18 *41:44 *42:26 7.77751e-05
19 *46:A *50:B 0.000191776
20 *46:A *54:A1 0
21 *50:A *50:B 0.000186669
22 *51:A *50:B 6.05161e-06
23 *51:A *41:23 7.32272e-05
24 *51:B *50:B 3.13225e-05
25 *51:B *57:B 2.97756e-05
26 *51:B *41:38 9.11365e-06
27 *52:A *57:B 5.922e-05
28 *52:A *41:23 2.65105e-05
29 *53:A *57:B 8.15095e-05
30 *53:A *41:38 9.25014e-06
31 *54:B1 *54:A1 5.59013e-05
32 *55:A3 *50:B 0
33 *55:B1 *54:A1 0
34 *56:A1 *57:B 2.51343e-06
35 *56:A1 *41:44 5.01368e-05
36 *58:B *57:B 3.57366e-05
37 *59:A *57:B 1.34703e-05
38 *59:A *41:44 0.000120509
39 *59:B *41:44 5.52238e-05
40 *61:A2 *41:44 0.00010096
41 *61:B1 *54:A1 0
42 *62:A1 *54:A1 0
43 *62:A1 *41:38 0
44 *62:A1 *41:66 6.05161e-06
45 *62:A2 *62:A3 4.38128e-05
46 *62:A2 *41:44 3.39135e-05
47 *62:A2 *41:66 3.52408e-05
48 *64:A2 *54:A1 0
49 *65:C *54:A1 5.66564e-05
50 *66:A3 *54:A1 2.16719e-05
51 *69:D *41:44 2.97829e-05
52 *71:A *54:A1 0
53 *72:A *54:A1 4.20435e-05
54 *72:A *62:A3 0
55 *72:A *41:66 0
56 *15:10 *54:A1 0
57 *16:8 *54:A1 0
58 *17:10 *57:B 7.49387e-06
59 *20:12 *50:B 4.46186e-06
60 *30:8 *54:A1 2.47093e-05
61 *39:19 *50:B 2.98004e-05
62 *39:23 *50:B 8.15095e-05
63 *39:23 *41:38 0
64 *39:49 *50:B 3.69047e-06
65 *39:49 *57:B 0
66 *39:49 *41:23 2.56358e-05
67 *40:22 *54:A1 0.00010127
68 *40:22 *41:66 0
69 *40:24 *41:38 0
70 *40:24 *41:66 0
71 *40:30 *41:38 0
*RES
1 *68:Q *41:4 9.3 
2 *41:4 *50:B 22.55 
3 *41:4 *41:23 6.26786 
4 *41:23 *57:B 17.0321 
5 *41:23 *41:38 1.33929 
6 *41:38 *41:44 12.0357 
7 *41:44 *56:A2 9.72857 
8 *41:44 *78:A 14.3714 
9 *41:38 *41:66 7.08929 
10 *41:66 *54:A1 24.6214 
11 *41:66 *62:A3 9.83571 
*END

*D_NET *42 0.0057053
*CONN
*I *79:A I *D sky130_fd_sc_hd__buf_2
*I *56:B1 I *D sky130_fd_sc_hd__a21o_1
*I *63:B I *D sky130_fd_sc_hd__nand2b_1
*I *60:A1 I *D sky130_fd_sc_hd__a21oi_1
*I *57:C I *D sky130_fd_sc_hd__nand3_1
*I *69:Q O *D sky130_fd_sc_hd__dfxtp_1
*CAP
1 *79:A 0
2 *56:B1 0
3 *63:B 0.00043735
4 *60:A1 2.38462e-05
5 *57:C 0.000290962
6 *69:Q 0.000225627
7 *42:41 0.000585376
8 *42:26 0.000440939
9 *42:22 0.000201508
10 *42:12 0.000401338
11 counter[1] *42:12 0
12 *49:A2 *63:B 6.57914e-05
13 *49:B1 *63:B 9.60875e-05
14 *52:A *57:C 1.04232e-05
15 *52:B *57:C 9.7049e-06
16 *55:B1 *63:B 0.000188586
17 *56:A1 *57:C 0
18 *56:A1 *42:22 0.000111383
19 *56:A1 *42:26 0.000116039
20 *56:A2 *42:22 3.99614e-06
21 *57:B *57:C 4.01768e-05
22 *58:A *57:C 9.60875e-05
23 *58:B *57:C 5.33433e-05
24 *62:A1 *63:B 0
25 *64:A2 *63:B 0.000163519
26 *69:CLK *63:B 4.7024e-05
27 *69:CLK *42:41 2.8266e-06
28 *69:D *60:A1 2.73185e-05
29 *72:A *60:A1 5.39629e-06
30 *72:A *63:B 0.000113083
31 *73:A *63:B 5.41794e-05
32 *77:A *42:12 0
33 *78:A *42:12 2.09915e-05
34 *78:A *42:22 0.000198768
35 *17:10 *57:C 0.000561813
36 *17:10 *42:41 0.000216771
37 *17:19 *63:B 0.000167684
38 *17:19 *42:41 1.02504e-05
39 *31:12 *63:B 0
40 *37:8 *63:B 0.000267082
41 *37:42 *63:B 8.43535e-06
42 *40:22 *63:B 0.000135028
43 *40:80 *63:B 0.000181796
44 *41:44 *42:22 4.69993e-05
45 *41:44 *42:26 7.77751e-05
*RES
1 *69:Q *42:12 22.425 
2 *42:12 *42:22 5.33929 
3 *42:22 *42:26 5.85714 
4 *42:26 *57:C 20.6036 
5 *42:26 *42:41 2.85714 
6 *42:41 *60:A1 14.3357 
7 *42:41 *63:B 27.6839 
8 *42:22 *56:B1 9.3 
9 *42:12 *79:A 9.3 
*END

*D_NET *43 0.0027111
*CONN
*I *80:A I *D sky130_fd_sc_hd__buf_2
*I *64:B1 I *D sky130_fd_sc_hd__a31o_1
*I *65:B I *D sky130_fd_sc_hd__nand4_1
*I *70:Q O *D sky130_fd_sc_hd__dfxtp_1
*CAP
1 *80:A 0.000421053
2 *64:B1 4.83801e-05
3 *65:B 0.000208153
4 *70:Q 0
5 *43:8 0.000409531
6 *43:6 0.000574051
7 *47:A *64:B1 5.33005e-05
8 *48:A1 *65:B 0
9 *54:B1 *43:8 0
10 *64:A2 *65:B 1.19402e-05
11 *65:D *64:B1 9.90367e-05
12 *65:D *65:B 0.000135809
13 *66:A2 *43:8 5.7616e-05
14 *66:A3 *65:B 0.000244088
15 *66:A3 *43:8 2.28428e-05
16 *70:D *80:A 0
17 *15:38 *80:A 0
18 *15:38 *43:8 0
19 *18:6 *64:B1 0.000228558
20 *18:15 *65:B 2.6621e-05
21 *31:12 *64:B1 3.53079e-05
22 *31:12 *65:B 0
23 *37:42 *65:B 0.000134808
24 *40:8 *65:B 0
*RES
1 *70:Q *43:6 13.8 
2 *43:6 *43:8 3.16071 
3 *43:8 *65:B 20.1527 
4 *43:8 *64:B1 15.9786 
5 *43:6 *80:A 21.6214 
*END
