*SPEF "ieee 1481-1999"
*DESIGN "counter_dut"
*DATE "11:24:09 Wednesday December 04, 2024"
*VENDOR "The OpenROAD Project"
*PROGRAM "OpenROAD"
*VERSION "edf00dff99f6c40d67a30c0e22a8191c5d2ed9d6"
*DESIGN_FLOW "NAME_SCOPE LOCAL" "PIN_CAP NONE"
*DIVIDER /
*DELIMITER :
*BUS_DELIMITER []
*T_UNIT 1 NS
*C_UNIT 1 PF
*R_UNIT 1 OHM
*L_UNIT 1 HENRY

*NAME_MAP
*3 clk
*4 counter[0]
*5 counter[1]
*6 counter[2]
*7 counter[3]
*8 enable
*9 reset
*10 up_down
*11 _00_
*12 _01_
*13 _02_
*14 _03_
*15 _04_
*16 _05_
*17 _06_
*18 _07_
*19 _08_
*20 _09_
*21 _10_
*22 _11_
*23 _12_
*24 _13_
*25 _14_
*26 _15_
*27 _16_
*28 _17_
*29 _18_
*30 _19_
*31 _20_
*32 _21_
*33 _22_
*34 clknet_0_clk
*35 clknet_1_0__leaf_clk
*36 clknet_1_1__leaf_clk
*37 net1
*38 net2
*39 net3
*40 net4
*41 net5
*42 net6
*43 net7
*44 FILLER_0_15
*45 FILLER_0_27
*46 FILLER_0_29
*47 FILLER_0_3
*48 FILLER_0_35
*49 FILLER_0_47
*50 FILLER_1_35
*51 FILLER_1_43
*52 FILLER_1_6
*53 FILLER_2_26
*54 FILLER_2_3
*55 FILLER_2_37
*56 FILLER_2_45
*57 FILLER_3_3
*58 FILLER_5_19
*59 FILLER_6_26
*60 FILLER_7_18
*61 FILLER_7_27
*62 FILLER_7_32
*63 FILLER_7_40
*64 FILLER_7_48
*65 FILLER_7_6
*66 PHY_EDGE_ROW_0_Left_8
*67 PHY_EDGE_ROW_0_Right_0
*68 PHY_EDGE_ROW_1_Left_9
*69 PHY_EDGE_ROW_1_Right_1
*70 PHY_EDGE_ROW_2_Left_10
*71 PHY_EDGE_ROW_2_Right_2
*72 PHY_EDGE_ROW_3_Left_11
*73 PHY_EDGE_ROW_3_Right_3
*74 PHY_EDGE_ROW_4_Left_12
*75 PHY_EDGE_ROW_4_Right_4
*76 PHY_EDGE_ROW_5_Left_13
*77 PHY_EDGE_ROW_5_Right_5
*78 PHY_EDGE_ROW_6_Left_14
*79 PHY_EDGE_ROW_6_Right_6
*80 PHY_EDGE_ROW_7_Left_15
*81 PHY_EDGE_ROW_7_Right_7
*82 TAP_TAPCELL_ROW_0_16
*83 TAP_TAPCELL_ROW_2_17
*84 TAP_TAPCELL_ROW_4_18
*85 TAP_TAPCELL_ROW_6_19
*86 TAP_TAPCELL_ROW_7_20
*87 _23_
*88 _24_
*89 _25_
*90 _26_
*91 _27_
*92 _28_
*93 _29_
*94 _30_
*95 _31_
*96 _32_
*97 _33_
*98 _34_
*99 _35_
*100 _36_
*101 _37_
*102 _38_
*103 _39_
*104 _40_
*105 _41_
*106 _42_
*107 _43_
*108 _44_
*109 _45_
*110 _46_
*111 _47_
*112 _48_
*113 _49_
*114 clkbuf_0_clk
*115 clkbuf_1_0__f_clk
*116 clkbuf_1_1__f_clk
*117 input1
*118 input2
*119 input3
*120 output4
*121 output5
*122 output6
*123 output7

*PORTS
clk I
counter[0] O
counter[1] O
counter[2] O
counter[3] O
enable I
reset I
up_down I

*D_NET *3 0.00127201
*CONN
*P clk I
*I *114:A I *D sky130_fd_sc_hd__clkbuf_16
*CAP
1 clk 0.000599163
2 *114:A 0.000599163
3 *114:A *98:A1 4.61701e-06
4 *114:A *98:B1 9.58678e-06
5 *114:A *117:A 3.6993e-05
6 *114:A *119:A 2.24901e-05
*RES
1 clk *114:A 5.77903 
*END

*D_NET *4 0.00101328
*CONN
*P counter[0] O
*I *120:X O *D sky130_fd_sc_hd__buf_1
*CAP
1 counter[0] 0.000283298
2 *120:X 0.000283298
3 counter[0] counter[1] 0.000135771
4 counter[0] counter[2] 0
5 counter[0] *40:12 0.000244979
6 counter[0] *42:10 6.59293e-05
*RES
1 *120:X counter[0] 8.16177 
*END

*D_NET *5 0.000753184
*CONN
*P counter[1] O
*I *121:X O *D sky130_fd_sc_hd__buf_1
*CAP
1 counter[1] 0.000217941
2 *121:X 0.000217941
3 counter[1] counter[2] 7.26916e-05
4 counter[1] *40:12 3.00381e-05
5 counter[1] *40:21 1.5567e-05
6 counter[1] *42:10 6.32345e-05
7 counter[0] counter[1] 0.000135771
*RES
1 *121:X counter[1] 6.7835 
*END

*D_NET *6 0.000507317
*CONN
*P counter[2] O
*I *122:X O *D sky130_fd_sc_hd__buf_1
*CAP
1 counter[2] 0.000206152
2 *122:X 0.000206152
3 counter[2] *99:B1 2.23203e-05
4 counter[0] counter[2] 0
5 counter[1] counter[2] 7.26916e-05
*RES
1 *122:X counter[2] 5.10177 
*END

*D_NET *7 0.000599591
*CONN
*P counter[3] O
*I *123:X O *D sky130_fd_sc_hd__buf_1
*CAP
1 counter[3] 0.000285723
2 *123:X 0.000285723
3 counter[3] *118:A 2.81454e-05
*RES
1 *123:X counter[3] 6.8343 
*END

*D_NET *8 0.000882181
*CONN
*P enable I
*I *117:A I *D sky130_fd_sc_hd__buf_1
*CAP
1 enable 0.000274287
2 *117:A 0.000274287
3 *117:A *118:A 0.000232918
4 *117:A *38:8 6.36947e-05
5 *114:A *117:A 3.6993e-05
*RES
1 enable *117:A 8.80043 
*END

*D_NET *9 0.000710998
*CONN
*P reset I
*I *118:A I *D sky130_fd_sc_hd__buf_1
*CAP
1 reset 0.000224967
2 *118:A 0.000224967
3 counter[3] *118:A 2.81454e-05
4 *117:A *118:A 0.000232918
*RES
1 reset *118:A 7.3443 
*END

*D_NET *10 0.000654526
*CONN
*P up_down I
*I *119:A I *D sky130_fd_sc_hd__buf_1
*CAP
1 up_down 0.000316018
2 *119:A 0.000316018
3 *114:A *119:A 2.24901e-05
*RES
1 up_down *119:A 7.8543 
*END

*D_NET *11 0.000733204
*CONN
*I *110:D I *D sky130_fd_sc_hd__dfxtp_2
*I *92:Y O *D sky130_fd_sc_hd__o21ai_1
*CAP
1 *110:D 0.000151593
2 *92:Y 0.000151593
3 *110:D *97:A1 0.000208929
4 *110:D *104:A1 9.50342e-06
5 *110:D *108:A 2.65814e-06
6 *110:D *110:CLK 4.66108e-05
7 *110:D *16:8 0.000162318
*RES
1 *92:Y *110:D 10.4587 
*END

*D_NET *12 0.000478297
*CONN
*I *111:D I *D sky130_fd_sc_hd__dfxtp_1
*I *98:X O *D sky130_fd_sc_hd__a31o_1
*CAP
1 *111:D 0.00019966
2 *98:X 0.00019966
3 *111:D *98:A3 7.89767e-05
4 *111:D *111:CLK 0
*RES
1 *98:X *111:D 10.6987 
*END

*D_NET *13 0.000391471
*CONN
*I *112:D I *D sky130_fd_sc_hd__dfxtp_1
*I *104:Y O *D sky130_fd_sc_hd__o21ai_1
*CAP
1 *112:D 0.000119192
2 *104:Y 0.000119192
3 *112:D *92:B1 3.48829e-05
4 *112:D *112:CLK 0.000118204
5 *112:D *40:12 0
*RES
1 *104:Y *112:D 9.49875 
*END

*D_NET *14 0.00029034
*CONN
*I *113:D I *D sky130_fd_sc_hd__dfxtp_1
*I *109:X O *D sky130_fd_sc_hd__a31o_1
*CAP
1 *113:D 0.000126083
2 *109:X 0.000126083
3 *113:D *109:A2 3.64998e-06
4 *113:D *15:38 3.45244e-05
5 *113:D *17:45 0
*RES
1 *109:X *113:D 5.03375 
*END

*D_NET *15 0.0033151
*CONN
*I *88:B I *D sky130_fd_sc_hd__nand2_1
*I *109:A1 I *D sky130_fd_sc_hd__a31o_1
*I *98:A2 I *D sky130_fd_sc_hd__a31o_1
*I *89:A I *D sky130_fd_sc_hd__nor2_1
*I *87:Y O *D sky130_fd_sc_hd__inv_2
*CAP
1 *88:B 0.000159958
2 *109:A1 0
3 *98:A2 9.86504e-05
4 *89:A 0.000191265
5 *87:Y 3.68143e-05
6 *15:38 0.000596174
7 *15:21 0.000648622
8 *15:6 0.000341835
9 *88:B *91:B1 0.000228169
10 *88:B *16:8 0.000118527
11 *88:B *17:45 2.0514e-05
12 *88:B *37:43 7.45968e-05
13 *89:A *111:CLK 0
14 *89:A *37:16 3.39064e-05
15 *98:A2 *98:A1 0.000228215
16 *98:A2 *98:A3 9.50342e-06
17 *98:A2 *113:CLK 2.46089e-05
18 *98:A2 *37:16 9.14049e-05
19 *15:6 *90:B 1.47256e-05
20 *15:6 *107:B1 5.83121e-06
21 *15:21 *90:B 2.17931e-05
22 *15:21 *107:A2 1.08758e-05
23 *15:21 *107:B1 5.05521e-05
24 *15:38 *90:B 0
25 *15:38 *109:A2 6.71882e-05
26 *15:38 *113:CLK 8.90227e-05
27 *15:38 *37:10 7.23533e-05
28 *15:38 *37:16 4.54719e-05
29 *15:38 *43:23 0
30 *113:D *15:38 3.45244e-05
*RES
1 *87:Y *15:6 2.05 
2 *15:6 *89:A 9.02 
3 *15:6 *15:21 3.485 
4 *15:21 *98:A2 7.275 
5 *15:21 *15:38 8.9 
6 *15:38 *109:A1 1.6 
7 *15:38 *88:B 9.92 
*END

*D_NET *16 0.0024724
*CONN
*I *92:A2 I *D sky130_fd_sc_hd__o21ai_1
*I *104:A1 I *D sky130_fd_sc_hd__o21ai_1
*I *88:Y O *D sky130_fd_sc_hd__nand2_1
*CAP
1 *92:A2 0
2 *104:A1 0.000167986
3 *88:Y 0.000154779
4 *16:8 0.000322765
5 *104:A1 *97:A1 0.000206843
6 *104:A1 *103:B1 8.23457e-05
7 *104:A1 *116:A 0.000185405
8 *104:A1 *121:A 0.000176087
9 *104:A1 *30:10 2.34345e-05
10 *104:A1 *34:6 2.10214e-05
11 *104:A1 *40:21 7.44125e-05
12 *104:A1 *40:25 0.000235764
13 *104:A1 *40:37 0.000157276
14 *16:8 *91:B1 7.89767e-05
15 *16:8 *92:B1 0
16 *16:8 *97:A1 1.07797e-05
17 *16:8 *110:CLK 2.37321e-05
18 *16:8 *116:A 0.000260442
19 *16:8 *37:43 0
20 *88:B *16:8 0.000118527
21 *110:D *104:A1 9.50342e-06
22 *110:D *16:8 0.000162318
*RES
1 *88:Y *16:8 8.55 
2 *16:8 *104:A1 10.5 
3 *16:8 *92:A2 3.6 
*END

*D_NET *17 0.00481845
*CONN
*I *103:B1 I *D sky130_fd_sc_hd__a21oi_1
*I *91:B1 I *D sky130_fd_sc_hd__a21oi_1
*I *109:B1 I *D sky130_fd_sc_hd__a31o_1
*I *97:B1 I *D sky130_fd_sc_hd__a21o_1
*I *89:Y O *D sky130_fd_sc_hd__nor2_1
*CAP
1 *103:B1 0.000224841
2 *91:B1 0.000341477
3 *109:B1 0
4 *97:B1 2.2817e-05
5 *89:Y 0.000313237
6 *17:45 0.000418556
7 *17:28 0.000290197
8 *17:22 0.000728378
9 *91:B1 *91:A2 0.000160314
10 *91:B1 *92:B1 4.36422e-06
11 *97:B1 *103:A2 9.50342e-06
12 *97:B1 *109:A3 1.15688e-05
13 *97:B1 *18:16 3.96088e-05
14 *103:B1 *97:A1 6.57171e-05
15 *103:B1 *101:B 3.09164e-05
16 *103:B1 *115:A 0.000155497
17 *103:B1 *34:6 0.000108098
18 *103:B1 *40:37 0.000120933
19 *103:B1 *41:38 1.07797e-05
20 *103:B1 *41:70 6.36656e-05
21 *17:22 *89:B 0.000203055
22 *17:22 *98:B1 0.00012966
23 *17:22 *115:A 0.000122325
24 *17:22 *40:37 8.82557e-05
25 *17:28 *103:A2 0.000331121
26 *17:28 *106:B 0.000139238
27 *17:28 *108:C 1.86688e-05
28 *17:28 *30:10 2.84137e-05
29 *17:28 *37:43 0.000122483
30 *17:45 *18:16 7.65496e-05
31 *17:45 *37:43 2.82072e-05
32 *88:B *91:B1 0.000228169
33 *88:B *17:45 2.0514e-05
34 *104:A1 *103:B1 8.23457e-05
35 *113:D *17:45 0
36 *16:8 *91:B1 7.89767e-05
*RES
1 *89:Y *17:22 8.74 
2 *17:22 *17:28 7.3625 
3 *17:28 *97:B1 4.3425 
4 *17:28 *17:45 3.8075 
5 *17:45 *109:B1 1.6 
6 *17:45 *91:B1 12.35 
7 *17:22 *103:B1 10.775 
*END

*D_NET *18 0.00395939
*CONN
*I *91:A2 I *D sky130_fd_sc_hd__a21oi_1
*I *97:A2 I *D sky130_fd_sc_hd__a21o_1
*I *103:A2 I *D sky130_fd_sc_hd__a21oi_1
*I *90:Y O *D sky130_fd_sc_hd__nor2_1
*CAP
1 *91:A2 0.000282889
2 *97:A2 3.03562e-05
3 *103:A2 0.000373923
4 *90:Y 0
5 *18:16 0.000675831
6 *18:4 0.00055444
7 *91:A2 *88:A 0.000115779
8 *91:A2 *91:A1 4.99619e-05
9 *91:A2 *92:B1 3.69077e-05
10 *97:A2 *97:A1 4.32568e-05
11 *97:A2 *108:B 1.33285e-05
12 *97:A2 *109:A3 8.85156e-05
13 *103:A2 *89:B 0
14 *103:A2 *98:A1 0
15 *103:A2 *98:B1 4.07468e-05
16 *103:A2 *99:A2 9.50342e-06
17 *103:A2 *106:A_N 3.42142e-05
18 *103:A2 *106:B 4.84472e-05
19 *103:A2 *115:A 5.20968e-05
20 *103:A2 *30:10 7.06865e-05
21 *103:A2 *31:10 0.00011379
22 *103:A2 *40:37 0.000105508
23 *103:A2 *41:38 4.21314e-05
24 *103:A2 *41:70 8.5242e-05
25 *18:16 *90:B 0.000195036
26 *18:16 *97:A1 0
27 *18:16 *108:B 8.40269e-05
28 *18:16 *109:A3 0.000195682
29 *18:16 *37:43 0
30 *91:B1 *91:A2 0.000160314
31 *97:B1 *103:A2 9.50342e-06
32 *97:B1 *18:16 3.96088e-05
33 *17:28 *103:A2 0.000331121
34 *17:45 *18:16 7.65496e-05
*RES
1 *90:Y *18:4 1.6 
2 *18:4 *18:16 10.48 
3 *18:16 *103:A2 18.015 
4 *18:16 *97:A2 2.785 
5 *18:4 *91:A2 6.895 
*END

*D_NET *19 0.00160272
*CONN
*I *92:B1 I *D sky130_fd_sc_hd__o21ai_1
*I *91:Y O *D sky130_fd_sc_hd__a21oi_1
*CAP
1 *92:B1 0.000677409
2 *91:Y 0.000677409
3 *92:B1 *91:A1 3.81908e-06
4 *92:B1 *92:A1 7.23615e-06
5 *92:B1 *112:CLK 0.000160695
6 *91:A2 *92:B1 3.69077e-05
7 *91:B1 *92:B1 4.36422e-06
8 *112:D *92:B1 3.48829e-05
9 *16:8 *92:B1 0
*RES
1 *91:Y *92:B1 17.085 
*END

*D_NET *20 0.000749865
*CONN
*I *95:B I *D sky130_fd_sc_hd__nand2_1
*I *94:B I *D sky130_fd_sc_hd__or2_1
*I *93:X O *D sky130_fd_sc_hd__xor2_1
*CAP
1 *95:B 0.000132826
2 *94:B 0
3 *93:X 3.75612e-05
4 *20:8 0.000170387
5 *95:B *93:B 2.96334e-05
6 *95:B *96:A 9.53428e-06
7 *95:B *96:B 3.95724e-05
8 *95:B *98:A3 6.59822e-05
9 *95:B *99:A2 0
10 *95:B *102:A 3.23663e-05
11 *95:B *21:6 2.3192e-05
12 *95:B *39:8 8.65905e-05
13 *95:B *39:19 3.74161e-05
14 *20:8 *93:B 3.48413e-05
15 *20:8 *96:A 0
16 *20:8 *39:8 4.99619e-05
*RES
1 *93:X *20:8 2.665 
2 *20:8 *94:B 1.6 
3 *20:8 *95:B 5.29 
*END

*D_NET *21 0.000686806
*CONN
*I *102:A I *D sky130_fd_sc_hd__xnor2_1
*I *96:A I *D sky130_fd_sc_hd__nand2_1
*I *94:X O *D sky130_fd_sc_hd__or2_1
*CAP
1 *102:A 0.000204395
2 *96:A 2.66954e-05
3 *94:X 2.38867e-05
4 *21:6 0.000254977
5 *96:A *96:B 1.85674e-05
6 *102:A *96:B 8.8266e-05
7 *102:A *99:A2 4.9253e-06
8 *95:B *96:A 9.53428e-06
9 *95:B *102:A 3.23663e-05
10 *95:B *21:6 2.3192e-05
11 *20:8 *96:A 0
*RES
1 *94:X *21:6 2.05 
2 *21:6 *96:A 2.215 
3 *21:6 *102:A 5.08 
*END

*D_NET *22 0.000210741
*CONN
*I *96:B I *D sky130_fd_sc_hd__nand2_1
*I *95:Y O *D sky130_fd_sc_hd__nand2_1
*CAP
1 *96:B 3.21678e-05
2 *95:Y 3.21678e-05
3 *95:B *96:B 3.95724e-05
4 *96:A *96:B 1.85674e-05
5 *102:A *96:B 8.8266e-05
*RES
1 *95:Y *96:B 4.355 
*END

*D_NET *23 0.00126431
*CONN
*I *98:A3 I *D sky130_fd_sc_hd__a31o_1
*I *96:Y O *D sky130_fd_sc_hd__nand2_1
*CAP
1 *98:A3 0.000361348
2 *96:Y 0.000361348
3 *98:A3 *93:A 0.000141599
4 *98:A3 *111:CLK 0
5 *98:A3 *39:8 0.000198939
6 *98:A3 *39:19 4.66108e-05
7 *98:A3 *40:37 0
8 *95:B *98:A3 6.59822e-05
9 *98:A2 *98:A3 9.50342e-06
10 *111:D *98:A3 7.89767e-05
*RES
1 *96:Y *98:A3 13.485 
*END

*D_NET *24 0.00093239
*CONN
*I *98:B1 I *D sky130_fd_sc_hd__a31o_1
*I *97:X O *D sky130_fd_sc_hd__a21o_1
*CAP
1 *98:B1 0.000171634
2 *97:X 0.000171634
3 *98:B1 *89:B 2.16833e-05
4 *98:B1 *98:A1 0
5 *98:B1 *107:A2 7.23602e-05
6 *98:B1 *115:A 9.71067e-05
7 *98:B1 *37:37 9.30787e-05
8 *98:B1 *40:37 0.0001249
9 *103:A2 *98:B1 4.07468e-05
10 *114:A *98:B1 9.58678e-06
11 *17:22 *98:B1 0.00012966
*RES
1 *97:X *98:B1 12.105 
*END

*D_NET *25 0.000511202
*CONN
*I *101:A I *D sky130_fd_sc_hd__nand2_1
*I *99:X O *D sky130_fd_sc_hd__a21o_1
*CAP
1 *101:A 0.000247456
2 *99:X 0.000247456
3 *101:A *99:A2 1.62912e-05
4 *101:A *101:B 0
*RES
1 *99:X *101:A 10.77 
*END

*D_NET *26 0.0015176
*CONN
*I *101:B I *D sky130_fd_sc_hd__nand2_1
*I *105:B1 I *D sky130_fd_sc_hd__o31ai_1
*I *100:Y O *D sky130_fd_sc_hd__nand3_1
*CAP
1 *101:B 0.000267455
2 *105:B1 9.4183e-05
3 *100:Y 4.92705e-05
4 *26:8 0.000410908
5 *101:B *95:A 0
6 *101:B *99:A2 0.000115464
7 *101:B *102:B 0.000123156
8 *101:B *104:A2 0
9 *101:B *41:38 3.09164e-05
10 *105:B1 *100:B 2.49909e-05
11 *105:B1 *106:B 4.07182e-05
12 *105:B1 *39:36 4.66742e-05
13 *105:B1 *41:36 0.000199216
14 *26:8 *100:A 2.05564e-05
15 *26:8 *100:B 3.63267e-05
16 *26:8 *104:B1 2.68526e-05
17 *101:A *101:B 0
18 *103:B1 *101:B 3.09164e-05
*RES
1 *100:Y *26:8 2.755 
2 *26:8 *105:B1 4.135 
3 *26:8 *101:B 10.49 
*END

*D_NET *27 0.000411881
*CONN
*I *102:B I *D sky130_fd_sc_hd__xnor2_1
*I *101:Y O *D sky130_fd_sc_hd__nand2_1
*CAP
1 *102:B 0.000131867
2 *101:Y 0.000131867
3 *102:B *99:A2 2.49909e-05
4 *101:B *102:B 0.000123156
*RES
1 *101:Y *102:B 9.48 
*END

*D_NET *28 0.00115328
*CONN
*I *104:A2 I *D sky130_fd_sc_hd__o21ai_1
*I *102:Y O *D sky130_fd_sc_hd__xnor2_1
*CAP
1 *104:A2 0.000353572
2 *102:Y 0.000353572
3 *104:A2 *99:A1 7.44375e-05
4 *104:A2 *99:A2 0.000161985
5 *104:A2 *104:B1 7.06865e-05
6 *104:A2 *121:A 0.000119246
7 *104:A2 *40:84 1.97849e-05
8 *101:B *104:A2 0
*RES
1 *102:Y *104:A2 12.735 
*END

*D_NET *29 0.000828354
*CONN
*I *104:B1 I *D sky130_fd_sc_hd__o21ai_1
*I *103:Y O *D sky130_fd_sc_hd__a21oi_1
*CAP
1 *104:B1 0.000245938
2 *103:Y 0.000245938
3 *104:B1 *100:A 0.000125141
4 *104:B1 *40:84 0.000113797
5 *104:A2 *104:B1 7.06865e-05
6 *26:8 *104:B1 2.68526e-05
*RES
1 *103:Y *104:B1 11.1 
*END

*D_NET *30 0.00286901
*CONN
*I *108:C I *D sky130_fd_sc_hd__nand4_1
*I *107:A2 I *D sky130_fd_sc_hd__a31o_1
*I *105:Y O *D sky130_fd_sc_hd__o31ai_1
*CAP
1 *108:C 5.79297e-05
2 *107:A2 0.000423108
3 *105:Y 0.000219066
4 *30:10 0.000700104
5 *107:A2 *90:B 2.0514e-05
6 *107:A2 *106:B 3.78034e-06
7 *107:A2 *107:A3 0.00015806
8 *107:A2 *109:A2 7.58604e-05
9 *107:A2 *113:CLK 3.23391e-05
10 *107:A2 *31:10 8.08153e-06
11 *107:A2 *37:37 8.40213e-05
12 *107:A2 *38:8 0
13 *108:C *108:D 5.16418e-05
14 *108:C *116:A 0.000136884
15 *108:C *37:43 1.07797e-05
16 *30:10 *97:A1 1.48978e-05
17 *30:10 *106:A_N 0.000289004
18 *30:10 *116:A 0.000186092
19 *30:10 *41:36 0.000159741
20 *30:10 *41:70 1.26626e-05
21 *98:B1 *107:A2 7.23602e-05
22 *103:A2 *30:10 7.06865e-05
23 *104:A1 *30:10 2.34345e-05
24 *15:21 *107:A2 1.08758e-05
25 *17:28 *108:C 1.86688e-05
26 *17:28 *30:10 2.84137e-05
*RES
1 *105:Y *30:10 9.27 
2 *30:10 *107:A2 13.78 
3 *30:10 *108:C 5.235 
*END

*D_NET *31 0.00148417
*CONN
*I *108:D I *D sky130_fd_sc_hd__nand4_1
*I *107:A3 I *D sky130_fd_sc_hd__a31o_1
*I *106:Y O *D sky130_fd_sc_hd__nand2b_1
*CAP
1 *108:D 6.04258e-05
2 *107:A3 9.69013e-05
3 *106:Y 4.2073e-05
4 *31:10 0.0001994
5 *107:A3 *90:B 0.000159741
6 *107:A3 *108:B 1.12578e-05
7 *107:A3 *109:A3 8.54987e-05
8 *107:A3 *37:37 4.66108e-05
9 *108:D *108:A 4.82919e-05
10 *108:D *109:A3 0.000153816
11 *108:D *37:37 0.000107205
12 *108:D *37:43 4.9968e-05
13 *31:10 *37:37 9.14049e-05
14 *103:A2 *31:10 0.00011379
15 *107:A2 *107:A3 0.00015806
16 *107:A2 *31:10 8.08153e-06
17 *108:C *108:D 5.16418e-05
*RES
1 *106:Y *31:10 6.98 
2 *31:10 *107:A3 4.585 
3 *31:10 *108:D 7.7 
*END

*D_NET *32 0.000942698
*CONN
*I *109:A2 I *D sky130_fd_sc_hd__a31o_1
*I *107:X O *D sky130_fd_sc_hd__a31o_1
*CAP
1 *109:A2 0.000198617
2 *107:X 0.000198617
3 *109:A2 *90:B 0.000181376
4 *109:A2 *113:CLK 0.000217389
5 *107:A2 *109:A2 7.58604e-05
6 *113:D *109:A2 3.64998e-06
7 *15:38 *109:A2 6.71882e-05
*RES
1 *107:X *109:A2 11.7 
*END

*D_NET *33 0.00108512
*CONN
*I *109:A3 I *D sky130_fd_sc_hd__a31o_1
*I *108:Y O *D sky130_fd_sc_hd__nand4_1
*CAP
1 *109:A3 0.000147322
2 *108:Y 0.000147322
3 *109:A3 *90:B 0.000162325
4 *109:A3 *97:A1 3.83194e-05
5 *109:A3 *108:A 3.42384e-05
6 *109:A3 *108:B 2.0514e-05
7 *97:A2 *109:A3 8.85156e-05
8 *97:B1 *109:A3 1.15688e-05
9 *107:A3 *109:A3 8.54987e-05
10 *108:D *109:A3 0.000153816
11 *18:16 *109:A3 0.000195682
*RES
1 *108:Y *109:A3 12.435 
*END

*D_NET *34 0.00233101
*CONN
*I *116:A I *D sky130_fd_sc_hd__clkbuf_16
*I *115:A I *D sky130_fd_sc_hd__clkbuf_16
*I *114:X O *D sky130_fd_sc_hd__clkbuf_16
*CAP
1 *116:A 0.000132507
2 *115:A 0.000230062
3 *114:X 0.00011629
4 *34:6 0.000478859
5 *116:A *37:43 4.83241e-05
6 *98:B1 *115:A 9.71067e-05
7 *103:A2 *115:A 5.20968e-05
8 *103:B1 *115:A 0.000155497
9 *103:B1 *34:6 0.000108098
10 *104:A1 *116:A 0.000185405
11 *104:A1 *34:6 2.10214e-05
12 *108:C *116:A 0.000136884
13 *16:8 *116:A 0.000260442
14 *17:22 *115:A 0.000122325
15 *30:10 *116:A 0.000186092
*RES
1 *114:X *34:6 3.085 
2 *34:6 *115:A 9.245 
3 *34:6 *116:A 10.805 
*END

*D_NET *35 0.00229876
*CONN
*I *113:CLK I *D sky130_fd_sc_hd__dfxtp_1
*I *111:CLK I *D sky130_fd_sc_hd__dfxtp_1
*I *115:X O *D sky130_fd_sc_hd__clkbuf_16
*CAP
1 *113:CLK 0.00045827
2 *111:CLK 0.000424957
3 *115:X 0
4 *35:4 0.000883227
5 *113:CLK *37:16 8.23457e-05
6 *113:CLK *37:37 8.65961e-05
7 *89:A *111:CLK 0
8 *98:A2 *113:CLK 2.46089e-05
9 *98:A3 *111:CLK 0
10 *107:A2 *113:CLK 3.23391e-05
11 *109:A2 *113:CLK 0.000217389
12 *111:D *111:CLK 0
13 *15:38 *113:CLK 8.90227e-05
*RES
1 *115:X *35:4 1.6 
2 *35:4 *111:CLK 11.78 
3 *35:4 *113:CLK 12.575 
*END

*D_NET *36 0.00200418
*CONN
*I *112:CLK I *D sky130_fd_sc_hd__dfxtp_1
*I *110:CLK I *D sky130_fd_sc_hd__dfxtp_2
*I *116:X O *D sky130_fd_sc_hd__clkbuf_16
*CAP
1 *112:CLK 0.000351607
2 *110:CLK 0.000249987
3 *116:X 0.00017421
4 *36:6 0.000775804
5 *110:CLK *97:A1 4.86642e-05
6 *112:CLK *92:A1 5.46691e-05
7 *112:CLK *97:A1 0
8 *112:CLK *40:12 0
9 *92:B1 *112:CLK 0.000160695
10 *110:D *110:CLK 4.66108e-05
11 *112:D *112:CLK 0.000118204
12 *16:8 *110:CLK 2.37321e-05
*RES
1 *116:X *36:6 3.43 
2 *36:6 *110:CLK 9.26 
3 *36:6 *112:CLK 12.44 
*END

*D_NET *37 0.00431438
*CONN
*I *107:A1 I *D sky130_fd_sc_hd__a31o_1
*I *108:A I *D sky130_fd_sc_hd__nand4_1
*I *90:A I *D sky130_fd_sc_hd__nor2_1
*I *88:A I *D sky130_fd_sc_hd__nand2_1
*I *98:A1 I *D sky130_fd_sc_hd__a31o_1
*I *117:X O *D sky130_fd_sc_hd__buf_1
*CAP
1 *107:A1 0
2 *108:A 0.000184443
3 *90:A 0
4 *88:A 0.000125728
5 *98:A1 0.000134019
6 *117:X 0.000193725
7 *37:43 0.000361139
8 *37:37 0.00068383
9 *37:16 0.000499582
10 *37:10 0.000295311
11 *98:A1 *40:37 5.53249e-06
12 *108:A *97:A1 1.96634e-05
13 *37:10 *90:B 4.47125e-05
14 *37:10 *107:B1 1.44259e-05
15 *37:10 *108:B 0.000123225
16 *37:10 *38:8 1.33293e-05
17 *37:10 *43:23 1.0183e-05
18 *37:16 *107:B1 2.97004e-06
19 *88:B *37:43 7.45968e-05
20 *89:A *37:16 3.39064e-05
21 *91:A2 *88:A 0.000115779
22 *98:A2 *98:A1 0.000228215
23 *98:A2 *37:16 9.14049e-05
24 *98:B1 *98:A1 0
25 *98:B1 *37:37 9.30787e-05
26 *103:A2 *98:A1 0
27 *107:A2 *37:37 8.40213e-05
28 *107:A3 *37:37 4.66108e-05
29 *108:C *37:43 1.07797e-05
30 *108:D *108:A 4.82919e-05
31 *108:D *37:37 0.000107205
32 *108:D *37:43 4.9968e-05
33 *109:A3 *108:A 3.42384e-05
34 *110:D *108:A 2.65814e-06
35 *113:CLK *37:16 8.23457e-05
36 *113:CLK *37:37 8.65961e-05
37 *114:A *98:A1 4.61701e-06
38 *116:A *37:43 4.83241e-05
39 *15:38 *37:10 7.23533e-05
40 *15:38 *37:16 4.54719e-05
41 *16:8 *37:43 0
42 *17:28 *37:43 0.000122483
43 *17:45 *37:43 2.82072e-05
44 *18:16 *37:43 0
45 *31:10 *37:37 9.14049e-05
*RES
1 *117:X *37:10 6.645 
2 *37:10 *37:16 4.43 
3 *37:16 *98:A1 8.255 
4 *37:16 *37:37 8.785 
5 *37:37 *37:43 8.95 
6 *37:43 *88:A 4.15 
7 *37:43 *90:A 1.6 
8 *37:37 *108:A 4.045 
9 *37:10 *107:A1 3.6 
*END

*D_NET *38 0.00217667
*CONN
*I *90:B I *D sky130_fd_sc_hd__nor2_1
*I *87:A I *D sky130_fd_sc_hd__inv_2
*I *118:X O *D sky130_fd_sc_hd__buf_1
*CAP
1 *90:B 0.000337511
2 *87:A 0
3 *118:X 0.000118233
4 *38:8 0.000455744
5 *90:B *107:B1 8.65961e-05
6 *90:B *108:B 0.00030134
7 *107:A2 *90:B 2.0514e-05
8 *107:A2 *38:8 0
9 *107:A3 *90:B 0.000159741
10 *109:A2 *90:B 0.000181376
11 *109:A3 *90:B 0.000162325
12 *117:A *38:8 6.36947e-05
13 *15:6 *90:B 1.47256e-05
14 *15:21 *90:B 2.17931e-05
15 *15:38 *90:B 0
16 *18:16 *90:B 0.000195036
17 *37:10 *90:B 4.47125e-05
18 *37:10 *38:8 1.33293e-05
*RES
1 *118:X *38:8 3.7 
2 *38:8 *87:A 1.6 
3 *38:8 *90:B 15.17 
*END

*D_NET *39 0.00416936
*CONN
*I *89:B I *D sky130_fd_sc_hd__nor2_1
*I *106:A_N I *D sky130_fd_sc_hd__nand2b_1
*I *95:A I *D sky130_fd_sc_hd__nand2_1
*I *105:A1 I *D sky130_fd_sc_hd__o31ai_1
*I *94:A I *D sky130_fd_sc_hd__or2_1
*I *119:X O *D sky130_fd_sc_hd__buf_1
*CAP
1 *89:B 0.000351433
2 *106:A_N 0.000116489
3 *95:A 7.65689e-05
4 *105:A1 0
5 *94:A 0
6 *119:X 0.000263173
7 *39:36 0.000334327
8 *39:23 0.000148888
9 *39:19 0.000443195
10 *39:8 0.000347316
11 *89:B *106:B 0
12 *89:B *40:37 0.000154927
13 *89:B *41:25 2.14129e-05
14 *95:A *99:A2 3.39064e-05
15 *95:A *106:B 2.92496e-05
16 *106:A_N *99:A2 8.09021e-06
17 *106:A_N *106:B 0.000364048
18 *39:8 *93:A 0.000124895
19 *39:8 *93:B 9.27255e-06
20 *39:19 *93:B 9.30787e-05
21 *39:19 *106:B 0
22 *39:19 *41:25 5.56629e-05
23 *39:23 *41:25 1.35948e-05
24 *39:36 *106:B 4.66108e-05
25 *39:36 *41:25 9.16314e-05
26 *39:36 *41:36 2.7441e-05
27 *95:B *39:8 8.65905e-05
28 *95:B *39:19 3.74161e-05
29 *98:A3 *39:8 0.000198939
30 *98:A3 *39:19 4.66108e-05
31 *98:B1 *89:B 2.16833e-05
32 *101:B *95:A 0
33 *103:A2 *89:B 0
34 *103:A2 *106:A_N 3.42142e-05
35 *105:B1 *39:36 4.66742e-05
36 *17:22 *89:B 0.000203055
37 *20:8 *39:8 4.99619e-05
38 *30:10 *106:A_N 0.000289004
*RES
1 *119:X *39:8 6.895 
2 *39:8 *94:A 1.6 
3 *39:8 *39:19 4.085 
4 *39:19 *39:23 2.13125 
5 *39:23 *105:A1 1.6 
6 *39:23 *39:36 4.95875 
7 *39:36 *95:A 5.235 
8 *39:36 *106:A_N 8.04 
9 *39:19 *89:B 10.005 
*END

*D_NET *40 0.00732037
*CONN
*I *91:A1 I *D sky130_fd_sc_hd__a21oi_1
*I *100:A I *D sky130_fd_sc_hd__nand3_1
*I *99:A1 I *D sky130_fd_sc_hd__a21o_1
*I *92:A1 I *D sky130_fd_sc_hd__o21ai_1
*I *105:A2 I *D sky130_fd_sc_hd__o31ai_1
*I *93:A I *D sky130_fd_sc_hd__xor2_1
*I *120:A I *D sky130_fd_sc_hd__buf_1
*I *110:Q O *D sky130_fd_sc_hd__dfxtp_2
*CAP
1 *91:A1 0.000544164
2 *100:A 8.50246e-05
3 *99:A1 0.000117414
4 *92:A1 0.000259833
5 *105:A2 0.000100726
6 *93:A 0.000214859
7 *120:A 0
8 *110:Q 0
9 *40:84 0.000331235
10 *40:37 0.000636817
11 *40:25 0.000695915
12 *40:21 0.000388766
13 *40:12 0.000398304
14 *40:6 0.000797348
15 *92:A1 *97:A1 3.39868e-05
16 *93:A *93:B 3.72916e-05
17 *93:A *41:25 0
18 *99:A1 *99:B1 4.89295e-05
19 *100:A *100:B 4.89295e-05
20 *100:A *42:29 0.000159329
21 *100:A *42:33 3.09633e-05
22 *105:A2 *41:25 0.000103179
23 *105:A2 *41:36 0
24 *40:21 *121:A 2.55029e-05
25 *40:37 *121:A 0.000159333
26 *40:37 *41:25 8.53113e-06
27 counter[0] *40:12 0.000244979
28 counter[1] *40:12 3.00381e-05
29 counter[1] *40:21 1.5567e-05
30 *89:B *40:37 0.000154927
31 *91:A2 *91:A1 4.99619e-05
32 *92:B1 *91:A1 3.81908e-06
33 *92:B1 *92:A1 7.23615e-06
34 *98:A1 *40:37 5.53249e-06
35 *98:A3 *93:A 0.000141599
36 *98:A3 *40:37 0
37 *98:B1 *40:37 0.0001249
38 *103:A2 *40:37 0.000105508
39 *103:B1 *40:37 0.000120933
40 *104:A1 *40:21 7.44125e-05
41 *104:A1 *40:25 0.000235764
42 *104:A1 *40:37 0.000157276
43 *104:A2 *99:A1 7.44375e-05
44 *104:A2 *40:84 1.97849e-05
45 *104:B1 *100:A 0.000125141
46 *104:B1 *40:84 0.000113797
47 *112:CLK *92:A1 5.46691e-05
48 *112:CLK *40:12 0
49 *112:D *40:12 0
50 *17:22 *40:37 8.82557e-05
51 *26:8 *100:A 2.05564e-05
52 *39:8 *93:A 0.000124895
*RES
1 *110:Q *40:6 3.6 
2 *40:6 *40:12 7.145 
3 *40:12 *120:A 1.6 
4 *40:12 *40:21 2.535 
5 *40:21 *40:25 4.175 
6 *40:25 *40:37 14.13 
7 *40:37 *93:A 10.025 
8 *40:37 *105:A2 3.2725 
9 *40:25 *92:A1 7.485 
10 *40:21 *40:84 4.4 
11 *40:84 *99:A1 5.685 
12 *40:84 *100:A 6.585 
13 *40:6 *91:A1 10.995 
*END

*D_NET *41 0.00668476
*CONN
*I *97:A1 I *D sky130_fd_sc_hd__a21o_1
*I *121:A I *D sky130_fd_sc_hd__buf_1
*I *100:B I *D sky130_fd_sc_hd__nand3_1
*I *99:A2 I *D sky130_fd_sc_hd__a21o_1
*I *105:A3 I *D sky130_fd_sc_hd__o31ai_1
*I *93:B I *D sky130_fd_sc_hd__xor2_1
*I *111:Q O *D sky130_fd_sc_hd__dfxtp_1
*CAP
1 *97:A1 0.000464194
2 *121:A 0.00026735
3 *100:B 5.88063e-05
4 *99:A2 0.000360697
5 *105:A3 0
6 *93:B 0.000330801
7 *111:Q 0
8 *41:70 0.000770802
9 *41:38 0.000435958
10 *41:36 0.000167281
11 *41:25 0.000192321
12 *41:6 0.000411554
13 *97:A1 *108:B 0.00015896
14 *99:A2 *99:B1 0.000110065
15 *100:B *106:B 1.08758e-05
16 *100:B *42:33 0.000158536
17 *89:B *41:25 2.14129e-05
18 *92:A1 *97:A1 3.39868e-05
19 *93:A *93:B 3.72916e-05
20 *93:A *41:25 0
21 *95:A *99:A2 3.39064e-05
22 *95:B *93:B 2.96334e-05
23 *95:B *99:A2 0
24 *97:A2 *97:A1 4.32568e-05
25 *100:A *100:B 4.89295e-05
26 *101:A *99:A2 1.62912e-05
27 *101:B *99:A2 0.000115464
28 *101:B *41:38 3.09164e-05
29 *102:A *99:A2 4.9253e-06
30 *102:B *99:A2 2.49909e-05
31 *103:A2 *99:A2 9.50342e-06
32 *103:A2 *41:38 4.21314e-05
33 *103:A2 *41:70 8.5242e-05
34 *103:B1 *97:A1 6.57171e-05
35 *103:B1 *41:38 1.07797e-05
36 *103:B1 *41:70 6.36656e-05
37 *104:A1 *97:A1 0.000206843
38 *104:A1 *121:A 0.000176087
39 *104:A2 *99:A2 0.000161985
40 *104:A2 *121:A 0.000119246
41 *105:A2 *41:25 0.000103179
42 *105:A2 *41:36 0
43 *105:B1 *100:B 2.49909e-05
44 *105:B1 *41:36 0.000199216
45 *106:A_N *99:A2 8.09021e-06
46 *108:A *97:A1 1.96634e-05
47 *109:A3 *97:A1 3.83194e-05
48 *110:CLK *97:A1 4.86642e-05
49 *110:D *97:A1 0.000208929
50 *112:CLK *97:A1 0
51 *16:8 *97:A1 1.07797e-05
52 *18:16 *97:A1 0
53 *20:8 *93:B 3.48413e-05
54 *26:8 *100:B 3.63267e-05
55 *30:10 *97:A1 1.48978e-05
56 *30:10 *41:36 0.000159741
57 *30:10 *41:70 1.26626e-05
58 *39:8 *93:B 9.27255e-06
59 *39:19 *93:B 9.30787e-05
60 *39:19 *41:25 5.56629e-05
61 *39:23 *41:25 1.35948e-05
62 *39:36 *41:25 9.16314e-05
63 *39:36 *41:36 2.7441e-05
64 *40:21 *121:A 2.55029e-05
65 *40:37 *121:A 0.000159333
66 *40:37 *41:25 8.53113e-06
*RES
1 *111:Q *41:6 3.6 
2 *41:6 *93:B 8.535 
3 *41:6 *41:25 4.355 
4 *41:25 *105:A3 1.6 
5 *41:25 *41:36 4.88 
6 *41:36 *41:38 0.615 
7 *41:38 *99:A2 10.665 
8 *41:38 *100:B 5.445 
9 *41:36 *41:70 1.38 
10 *41:70 *121:A 9.015 
11 *41:70 *97:A1 12.9 
*END

*D_NET *42 0.00423529
*CONN
*I *122:A I *D sky130_fd_sc_hd__buf_1
*I *100:C I *D sky130_fd_sc_hd__nand3_1
*I *103:A1 I *D sky130_fd_sc_hd__a21oi_1
*I *106:B I *D sky130_fd_sc_hd__nand2b_1
*I *99:B1 I *D sky130_fd_sc_hd__a21o_1
*I *112:Q O *D sky130_fd_sc_hd__dfxtp_1
*CAP
1 *122:A 0
2 *100:C 0
3 *103:A1 0
4 *106:B 0.000303809
5 *99:B1 0.0003616
6 *112:Q 0.000279957
7 *42:33 0.000492528
8 *42:29 0.000399251
9 *42:27 0.000312421
10 *42:10 0.000743446
11 counter[0] *42:10 6.59293e-05
12 counter[1] *42:10 6.32345e-05
13 counter[2] *99:B1 2.23203e-05
14 *89:B *106:B 0
15 *95:A *106:B 2.92496e-05
16 *99:A1 *99:B1 4.89295e-05
17 *99:A2 *99:B1 0.000110065
18 *100:A *42:29 0.000159329
19 *100:A *42:33 3.09633e-05
20 *100:B *106:B 1.08758e-05
21 *100:B *42:33 0.000158536
22 *103:A2 *106:B 4.84472e-05
23 *105:B1 *106:B 4.07182e-05
24 *106:A_N *106:B 0.000364048
25 *107:A2 *106:B 3.78034e-06
26 *17:28 *106:B 0.000139238
27 *39:19 *106:B 0
28 *39:36 *106:B 4.66108e-05
*RES
1 *112:Q *42:10 8.07 
2 *42:10 *99:B1 9.495 
3 *42:10 *42:27 3.485 
4 *42:27 *42:29 3.555 
5 *42:29 *42:33 2.79 
6 *42:33 *106:B 11.8888 
7 *42:33 *103:A1 1.6 
8 *42:29 *100:C 1.6 
9 *42:27 *122:A 1.6 
*END

*D_NET *43 0.00291483
*CONN
*I *108:B I *D sky130_fd_sc_hd__nand4_1
*I *107:B1 I *D sky130_fd_sc_hd__a31o_1
*I *123:A I *D sky130_fd_sc_hd__buf_1
*I *113:Q O *D sky130_fd_sc_hd__dfxtp_1
*CAP
1 *108:B 0.000432927
2 *107:B1 6.13593e-05
3 *123:A 0.000103014
4 *113:Q 7.33664e-05
5 *43:23 0.000839432
6 *43:6 0.000521526
7 *90:B *107:B1 8.65961e-05
8 *90:B *108:B 0.00030134
9 *97:A1 *108:B 0.00015896
10 *97:A2 *108:B 1.33285e-05
11 *107:A3 *108:B 1.12578e-05
12 *109:A3 *108:B 2.0514e-05
13 *15:6 *107:B1 5.83121e-06
14 *15:21 *107:B1 5.05521e-05
15 *15:38 *43:23 0
16 *18:16 *108:B 8.40269e-05
17 *37:10 *107:B1 1.44259e-05
18 *37:10 *108:B 0.000123225
19 *37:10 *43:23 1.0183e-05
20 *37:16 *107:B1 2.97004e-06
*RES
1 *113:Q *43:6 2.395 
2 *43:6 *123:A 7.235 
3 *43:6 *43:23 6.575 
4 *43:23 *107:B1 5.01 
5 *43:23 *108:B 10.38 
*END
