*SPEF "ieee 1481-1999"
*DESIGN "counter_dut"
*DATE "11:18:22 Wednesday December 04, 2024"
*VENDOR "The OpenROAD Project"
*PROGRAM "OpenROAD"
*VERSION "edf00dff99f6c40d67a30c0e22a8191c5d2ed9d6"
*DESIGN_FLOW "NAME_SCOPE LOCAL" "PIN_CAP NONE"
*DIVIDER /
*DELIMITER :
*BUS_DELIMITER []
*T_UNIT 1 NS
*C_UNIT 1 PF
*R_UNIT 1 OHM
*L_UNIT 1 HENRY

*NAME_MAP
*1 clk
*2 counter[0]
*3 counter[1]
*4 counter[2]
*5 counter[3]
*6 enable
*7 reset
*8 up_down
*11 _00_
*12 _01_
*13 _02_
*14 _03_
*15 _04_
*16 _05_
*17 _06_
*18 _07_
*19 _08_
*20 _09_
*21 _10_
*22 _11_
*23 _12_
*24 _13_
*25 _14_
*26 _15_
*27 _16_
*28 _17_
*29 _18_
*30 _19_
*31 _20_
*32 _21_
*33 _22_
*34 clknet_0_clk
*35 clknet_1_0__leaf_clk
*36 clknet_1_1__leaf_clk
*37 net1
*38 net2
*39 net3
*40 net4
*41 net5
*42 net6
*43 net7
*44 _23_
*45 _24_
*46 _25_
*47 _26_
*48 _27_
*49 _28_
*50 _29_
*51 _30_
*52 _31_
*53 _32_
*54 _33_
*55 _34_
*56 _35_
*57 _36_
*58 _37_
*59 _38_
*60 _39_
*61 _40_
*62 _41_
*63 _42_
*64 _43_
*65 _44_
*66 _45_
*67 _46_
*68 _47_
*69 _48_
*70 _49_
*71 clkbuf_0_clk
*72 clkbuf_1_0__f_clk
*73 clkbuf_1_1__f_clk
*74 input1
*75 input2
*76 input3
*77 output4
*78 output5
*79 output6
*80 output7

*PORTS
clk I
counter[0] O
counter[1] O
counter[2] O
counter[3] O
enable I
reset I
up_down I

*D_NET *1 0.00157281
*CONN
*P clk I
*I *71:A I *D sky130_fd_sc_hd__clkbuf_16
*CAP
1 clk 0.00062567
2 *71:A 0.00062567
3 *71:A *54:A1 6.57509e-05
4 *71:A *74:A 5.65933e-05
5 *71:A *76:A 5.40137e-05
6 *71:A *30:12 0
7 *71:A *31:14 0.000145114
*RES
1 clk *71:A 20.7217 
*END

*D_NET *2 0.000294831
*CONN
*P counter[0] O
*I *77:X O *D sky130_fd_sc_hd__buf_1
*CAP
1 counter[0] 0.000114543
2 *77:X 0.000114543
3 counter[0] counter[1] 5.65933e-05
4 counter[0] *42:16 9.15186e-06
*RES
1 *77:X counter[0] 17.9067 
*END

*D_NET *3 0.000701404
*CONN
*P counter[1] O
*I *78:X O *D sky130_fd_sc_hd__buf_1
*CAP
1 counter[1] 0.00023066
2 *78:X 0.00023066
3 counter[1] counter[2] 5.40205e-05
4 counter[1] *77:A 0.00012022
5 counter[1] *78:A 0
6 counter[1] *42:16 9.25014e-06
7 counter[0] counter[1] 5.65933e-05
*RES
1 *78:X counter[1] 19.3371 
*END

*D_NET *4 0.000339762
*CONN
*P counter[2] O
*I *79:X O *D sky130_fd_sc_hd__buf_1
*CAP
1 counter[2] 0.000134391
2 *79:X 0.000134391
3 counter[2] *40:12 1.6959e-05
4 counter[1] counter[2] 5.40205e-05
*RES
1 *79:X counter[2] 18.2102 
*END

*D_NET *5 0.00030683
*CONN
*P counter[3] O
*I *80:X O *D sky130_fd_sc_hd__buf_1
*CAP
1 counter[3] 0.000123272
2 *80:X 0.000123272
3 counter[3] *75:A 5.40137e-05
4 counter[3] *80:A 6.27272e-06
*RES
1 *80:X counter[3] 17.9067 
*END

*D_NET *6 0.0004346
*CONN
*P enable I
*I *74:A I *D sky130_fd_sc_hd__buf_1
*CAP
1 enable 0.000162688
2 *74:A 0.000162688
3 *74:A *70:CLK 0
4 *74:A *75:A 5.26303e-05
5 *71:A *74:A 5.65933e-05
*RES
1 enable *74:A 18.8174 
*END

*D_NET *7 0.000438306
*CONN
*P reset I
*I *75:A I *D sky130_fd_sc_hd__buf_1
*CAP
1 reset 0.000143084
2 *75:A 0.000143084
3 *75:A *43:16 4.54941e-05
4 counter[3] *75:A 5.40137e-05
5 *74:A *75:A 5.26303e-05
*RES
1 reset *75:A 19.1209 
*END

*D_NET *8 0.00082128
*CONN
*P up_down I
*I *76:A I *D sky130_fd_sc_hd__buf_1
*CAP
1 up_down 0.000322456
2 *76:A 0.000322456
3 *76:A *51:A 0.000122354
4 *76:A *52:B 0
5 *71:A *76:A 5.40137e-05
*RES
1 up_down *76:A 22.4602 
*END

*D_NET *11 0.00146254
*CONN
*I *67:D I *D sky130_fd_sc_hd__dfxtp_1
*I *49:Y O *D sky130_fd_sc_hd__o21ai_1
*CAP
1 *67:D 0.000550532
2 *49:Y 0.000550532
3 *67:D *48:A1 8.07397e-06
4 *67:D *48:A2 1.92905e-05
5 *67:D *48:B1 1.00073e-05
6 *67:D *49:B1 5.71472e-05
7 *67:D *63:B 7.01199e-06
8 *67:D *67:CLK 0.000160205
9 *67:D *69:CLK 1.00375e-05
10 *67:D *69:D 8.97072e-05
11 *67:D *78:A 0
12 *67:D *42:20 0
*RES
1 *49:Y *67:D 40.0152 
*END

*D_NET *12 0.00050642
*CONN
*I *68:D I *D sky130_fd_sc_hd__dfxtp_1
*I *55:X O *D sky130_fd_sc_hd__a31o_1
*CAP
1 *68:D 8.50799e-05
2 *55:X 8.50799e-05
3 *68:D *51:A 0.000132297
4 *68:D *51:B 5.92682e-05
5 *68:D *52:B 2.8266e-06
6 *68:D *68:CLK 0.00013361
7 *68:D *21:8 8.25843e-06
8 *68:D *39:10 0
*RES
1 *55:X *68:D 30.3545 
*END

*D_NET *13 0.000609856
*CONN
*I *69:D I *D sky130_fd_sc_hd__dfxtp_1
*I *61:Y O *D sky130_fd_sc_hd__o21ai_1
*CAP
1 *69:D 0.00015288
2 *61:Y 0.00015288
3 *69:D *48:A2 0
4 *69:D *61:B1 0
5 *69:D *67:CLK 3.17148e-05
6 *69:D *69:CLK 0.000108118
7 *69:D *36:8 7.45557e-05
8 *67:D *69:D 8.97072e-05
*RES
1 *61:Y *69:D 31.408 
*END

*D_NET *14 0.000705226
*CONN
*I *70:D I *D sky130_fd_sc_hd__dfxtp_1
*I *66:X O *D sky130_fd_sc_hd__a31o_1
*CAP
1 *70:D 0.000160659
2 *66:X 0.000160659
3 *70:D *45:A 0.000123308
4 *70:D *45:B 0.00013059
5 *70:D *49:A1 0
6 *70:D *70:CLK 0.00013001
*RES
1 *66:X *70:D 32.2473 
*END

*D_NET *15 0.00383807
*CONN
*I *46:A I *D sky130_fd_sc_hd__nor2_1
*I *66:A1 I *D sky130_fd_sc_hd__a31o_1
*I *45:B I *D sky130_fd_sc_hd__nand2_1
*I *55:A2 I *D sky130_fd_sc_hd__a31o_1
*I *44:Y O *D sky130_fd_sc_hd__inv_2
*CAP
1 *46:A 0.000212965
2 *66:A1 1.32931e-05
3 *45:B 0.00010737
4 *55:A2 0.000304086
5 *44:Y 4.56145e-05
6 *15:36 0.0002769
7 *15:21 0.000335872
8 *15:6 0.000527562
9 *45:B *45:A 0.000157906
10 *45:B *48:B1 0
11 *45:B *61:A1 0
12 *45:B *31:14 7.6644e-05
13 *46:A *54:B1 0
14 *46:A *63:B 4.46186e-06
15 *46:A *66:B1 9.90367e-05
16 *46:A *17:8 0.000109826
17 *46:A *17:19 4.56437e-05
18 *46:A *17:32 0.000146941
19 *46:A *31:14 0
20 *46:A *40:57 2.49484e-05
21 *55:A2 *51:B 6.05161e-06
22 *55:A2 *55:A1 0
23 *55:A2 *55:A3 2.27416e-05
24 *55:A2 *55:B1 0
25 *55:A2 *68:CLK 8.71669e-05
26 *55:A2 *70:CLK 0.000202678
27 *55:A2 *20:12 0
28 *55:A2 *21:8 9.90431e-05
29 *55:A2 *37:30 0
30 *66:A1 *66:A2 2.53134e-05
31 *15:6 *37:8 4.88515e-05
32 *15:6 *43:16 7.32272e-05
33 *15:21 *54:B1 2.92634e-05
34 *15:21 *64:B1 1.69961e-05
35 *15:21 *66:A2 0.0001399
36 *15:21 *66:A3 0.000311747
37 *15:21 *37:8 5.04705e-05
38 *15:21 *37:17 0
39 *15:21 *43:16 2.89114e-05
40 *15:36 *54:B1 1.03968e-05
41 *15:36 *66:A2 6.56534e-05
42 *70:D *45:B 0.00013059
*RES
1 *44:Y *15:6 10.6571 
2 *15:6 *55:A2 25.7464 
3 *15:6 *15:21 5.46429 
4 *15:21 *45:B 21.4607 
5 *15:21 *15:36 1.375 
6 *15:36 *66:A1 9.72857 
7 *15:36 *46:A 24.0321 
*END

*D_NET *16 0.00100122
*CONN
*I *49:A2 I *D sky130_fd_sc_hd__o21ai_1
*I *61:A1 I *D sky130_fd_sc_hd__o21ai_1
*I *45:Y O *D sky130_fd_sc_hd__nand2_1
*CAP
1 *49:A2 0
2 *61:A1 0.00021415
3 *45:Y 0.000118806
4 *16:6 0.000332956
5 *61:A1 *45:A 0
6 *61:A1 *48:A1 4.46231e-06
7 *61:A1 *48:A2 0
8 *61:A1 *48:B1 0.000155484
9 *61:A1 *49:A1 7.07155e-06
10 *61:A1 *66:B1 5.52238e-05
11 *61:A1 *18:15 0
12 *16:6 *45:A 9.90367e-05
13 *16:6 *49:A1 1.40306e-05
14 *16:6 *66:B1 0
15 *45:B *61:A1 0
*RES
1 *45:Y *16:6 11.8893 
2 *16:6 *61:A1 22.5143 
3 *16:6 *49:A2 9.3 
*END

*D_NET *17 0.00347919
*CONN
*I *48:B1 I *D sky130_fd_sc_hd__a21oi_1
*I *66:B1 I *D sky130_fd_sc_hd__a31o_1
*I *54:B1 I *D sky130_fd_sc_hd__a21o_1
*I *60:B1 I *D sky130_fd_sc_hd__a21oi_1
*I *46:Y O *D sky130_fd_sc_hd__nor2_1
*CAP
1 *48:B1 8.10769e-05
2 *66:B1 4.32919e-05
3 *54:B1 0.000189904
4 *60:B1 0.000186963
5 *46:Y 1.82508e-05
6 *17:32 0.000166839
7 *17:19 0.000253024
8 *17:8 0.000225864
9 *48:B1 *48:A1 5.52302e-05
10 *48:B1 *49:A1 5.33005e-05
11 *48:B1 *49:B1 2.27416e-05
12 *48:B1 *40:57 0.000153762
13 *54:B1 *18:8 7.43355e-05
14 *54:B1 *18:15 0.000399835
15 *54:B1 *37:8 0
16 *60:B1 *60:A2 0.000341668
17 *60:B1 *63:B 0
18 *60:B1 *72:A 2.71337e-05
19 *60:B1 *18:15 0.000180777
20 *66:B1 *49:A1 0
21 *17:8 *40:57 0.000108111
22 *17:19 *40:57 5.41794e-05
23 *17:32 *40:57 0.000181085
24 *45:B *48:B1 0
25 *46:A *54:B1 0
26 *46:A *66:B1 9.90367e-05
27 *46:A *17:8 0.000109826
28 *46:A *17:19 4.56437e-05
29 *46:A *17:32 0.000146941
30 *61:A1 *48:B1 0.000155484
31 *61:A1 *66:B1 5.52238e-05
32 *67:D *48:B1 1.00073e-05
33 *15:21 *54:B1 2.92634e-05
34 *15:36 *54:B1 1.03968e-05
35 *16:6 *66:B1 0
*RES
1 *46:Y *17:8 15.1393 
2 *17:8 *60:B1 18.8536 
3 *17:8 *17:19 0.732143 
4 *17:19 *54:B1 19.2821 
5 *17:19 *17:32 2.25 
6 *17:32 *66:B1 15.1571 
7 *17:32 *48:B1 16.9964 
*END

*D_NET *18 0.00315481
*CONN
*I *60:A2 I *D sky130_fd_sc_hd__a21oi_1
*I *48:A2 I *D sky130_fd_sc_hd__a21oi_1
*I *54:A2 I *D sky130_fd_sc_hd__a21o_1
*I *47:Y O *D sky130_fd_sc_hd__nor2_1
*CAP
1 *60:A2 0.000156171
2 *48:A2 0.000139945
3 *54:A2 0
4 *47:Y 0.000162125
5 *18:15 0.000512822
6 *18:8 0.000378831
7 *48:A2 *48:A1 6.05161e-06
8 *48:A2 *61:A2 0.000157906
9 *48:A2 *61:B1 0.000134719
10 *48:A2 *67:CLK 2.00751e-05
11 *48:A2 *69:CLK 4.47843e-05
12 *48:A2 *73:A 5.4115e-05
13 *48:A2 *40:57 7.48969e-05
14 *60:A2 *61:B1 0.000111448
15 *60:A2 *63:B 0
16 *60:A2 *42:16 2.89114e-05
17 *18:8 *37:8 1.32552e-05
18 *18:8 *37:17 0.00014285
19 *18:15 *72:A 0
20 *18:15 *39:50 0
21 *54:B1 *18:8 7.43355e-05
22 *54:B1 *18:15 0.000399835
23 *60:B1 *60:A2 0.000341668
24 *60:B1 *18:15 0.000180777
25 *61:A1 *48:A2 0
26 *61:A1 *18:15 0
27 *67:D *48:A2 1.92905e-05
28 *69:D *48:A2 0
*RES
1 *47:Y *18:8 13.1393 
2 *18:8 *54:A2 9.3 
3 *18:8 *18:15 5.46429 
4 *18:15 *48:A2 23.8179 
5 *18:15 *60:A2 13.9429 
*END

*D_NET *19 0.000141983
*CONN
*I *49:B1 I *D sky130_fd_sc_hd__o21ai_1
*I *48:Y O *D sky130_fd_sc_hd__a21oi_1
*CAP
1 *49:B1 3.10469e-05
2 *48:Y 3.10469e-05
3 *48:B1 *49:B1 2.27416e-05
4 *67:D *49:B1 5.71472e-05
*RES
1 *48:Y *49:B1 19.5643 
*END

*D_NET *20 0.00158035
*CONN
*I *51:B I *D sky130_fd_sc_hd__or2_1
*I *52:B I *D sky130_fd_sc_hd__nand2_1
*I *50:X O *D sky130_fd_sc_hd__xor2_1
*CAP
1 *51:B 0.000124717
2 *52:B 0.000212234
3 *50:X 0.000218446
4 *20:12 0.000555397
5 *51:B *68:CLK 6.84519e-05
6 *51:B *21:8 2.95726e-05
7 *51:B *39:23 0
8 *51:B *41:14 0
9 *52:B *51:A 0
10 *52:B *39:10 0.000186669
11 *52:B *39:23 0
12 *20:12 *50:B 9.99644e-06
13 *20:12 *53:B 6.70515e-05
14 *20:12 *55:A3 2.23758e-05
15 *20:12 *39:10 0
16 *20:12 *41:14 1.72894e-05
17 *55:A2 *51:B 6.05161e-06
18 *55:A2 *20:12 0
19 *68:D *51:B 5.92682e-05
20 *68:D *52:B 2.8266e-06
21 *76:A *52:B 0
*RES
1 *50:X *20:12 18.8893 
2 *20:12 *52:B 18.425 
3 *20:12 *51:B 16.6929 
*END

*D_NET *21 0.00189169
*CONN
*I *59:A I *D sky130_fd_sc_hd__xnor2_1
*I *53:A I *D sky130_fd_sc_hd__nand2_1
*I *51:X O *D sky130_fd_sc_hd__or2_1
*CAP
1 *59:A 2.17113e-05
2 *53:A 0
3 *51:X 0.000392722
4 *21:8 0.000414434
5 *59:A *62:B1 0.000144773
6 *59:A *41:29 5.23057e-05
7 *21:8 *55:A1 4.58976e-05
8 *21:8 *55:A3 1.84421e-05
9 *21:8 *55:B1 5.52238e-05
10 *21:8 *62:A1 0.000146067
11 *21:8 *62:B1 5.19835e-05
12 *21:8 *68:CLK 0
13 *21:8 *30:12 9.60939e-05
14 *21:8 *41:18 5.33005e-05
15 *21:8 *41:29 0.000261858
16 *51:B *21:8 2.95726e-05
17 *55:A2 *21:8 9.90431e-05
18 *68:D *21:8 8.25843e-06
*RES
1 *51:X *21:8 19.1929 
2 *21:8 *53:A 9.3 
3 *21:8 *59:A 10.6571 
*END

*D_NET *22 0.000985873
*CONN
*I *53:B I *D sky130_fd_sc_hd__nand2_1
*I *52:Y O *D sky130_fd_sc_hd__nand2_1
*CAP
1 *53:B 0.000338554
2 *52:Y 0.000338554
3 *53:B *50:B 1.42587e-05
4 *53:B *62:A2 9.33907e-05
5 *53:B *39:10 3.18676e-05
6 *53:B *39:23 0.000102197
7 *53:B *40:31 0
8 *53:B *40:53 0
9 *20:12 *53:B 6.70515e-05
*RES
1 *52:Y *53:B 35.4929 
*END

*D_NET *23 0.00101698
*CONN
*I *55:A3 I *D sky130_fd_sc_hd__a31o_1
*I *53:Y O *D sky130_fd_sc_hd__nand2_1
*CAP
1 *55:A3 0.000243884
2 *53:Y 0.000243884
3 *55:A3 *50:B 2.61613e-05
4 *55:A3 *55:A1 8.07313e-05
5 *55:A3 *62:A2 9.20581e-06
6 *55:A3 *62:B1 0.000309279
7 *55:A3 *30:12 1.55885e-05
8 *55:A3 *40:31 5.39629e-06
9 *55:A3 *41:14 1.92905e-05
10 *55:A2 *55:A3 2.27416e-05
11 *20:12 *55:A3 2.23758e-05
12 *21:8 *55:A3 1.84421e-05
*RES
1 *53:Y *55:A3 25.2071 
*END

*D_NET *24 0.000742244
*CONN
*I *55:B1 I *D sky130_fd_sc_hd__a31o_1
*I *54:X O *D sky130_fd_sc_hd__a21o_1
*CAP
1 *55:B1 0.000151773
2 *54:X 0.000151773
3 *55:B1 *55:A1 0.000383474
4 *55:A2 *55:B1 0
5 *21:8 *55:B1 5.52238e-05
*RES
1 *54:X *55:B1 32.2071 
*END

*D_NET *25 0.000104357
*CONN
*I *58:A I *D sky130_fd_sc_hd__nand2_1
*I *56:X O *D sky130_fd_sc_hd__a21o_1
*CAP
1 *58:A 7.67105e-06
2 *56:X 7.67105e-06
3 *58:A *57:C 5.71472e-05
4 *58:A *41:46 3.18676e-05
*RES
1 *56:X *58:A 19.1357 
*END

*D_NET *26 0.0016919
*CONN
*I *58:B I *D sky130_fd_sc_hd__nand2_1
*I *62:B1 I *D sky130_fd_sc_hd__o31ai_1
*I *57:Y O *D sky130_fd_sc_hd__nand3_1
*CAP
1 *58:B 5.80284e-05
2 *62:B1 0.000207336
3 *57:Y 2.03441e-05
4 *26:6 0.000285709
5 *58:B *57:A 1.33343e-05
6 *58:B *57:C 5.71472e-05
7 *58:B *59:B 0.000140471
8 *58:B *40:25 3.01267e-05
9 *62:B1 *57:A 0.000144773
10 *62:B1 *59:B 2.14757e-05
11 *62:B1 *62:A1 7.31797e-05
12 *62:B1 *62:A2 3.33174e-05
13 *62:B1 *30:12 3.93346e-05
14 *62:B1 *40:25 5.38072e-05
15 *62:B1 *40:31 0
16 *62:B1 *41:29 7.48301e-06
17 *55:A3 *62:B1 0.000309279
18 *59:A *62:B1 0.000144773
19 *21:8 *62:B1 5.19835e-05
*RES
1 *57:Y *26:6 9.72857 
2 *26:6 *62:B1 16.425 
3 *26:6 *58:B 11.6214 
*END

*D_NET *27 0.000841537
*CONN
*I *59:B I *D sky130_fd_sc_hd__xnor2_1
*I *58:Y O *D sky130_fd_sc_hd__nand2_1
*CAP
1 *59:B 6.40077e-05
2 *58:Y 6.40077e-05
3 *59:B *57:A 0.000144773
4 *59:B *57:C 2.44318e-05
5 *59:B *41:29 0.000251951
6 *59:B *41:46 0.000130419
7 *58:B *59:B 0.000140471
8 *62:B1 *59:B 2.14757e-05
*RES
1 *58:Y *59:B 22.4214 
*END

*D_NET *28 0.000812888
*CONN
*I *61:A2 I *D sky130_fd_sc_hd__o21ai_1
*I *59:Y O *D sky130_fd_sc_hd__xnor2_1
*CAP
1 *61:A2 0.000172962
2 *59:Y 0.000172962
3 *61:A2 *67:CLK 0
4 *61:A2 *72:A 4.20528e-05
5 *61:A2 *73:A 1.18358e-05
6 *61:A2 *40:57 0.000255169
7 *48:A2 *61:A2 0.000157906
*RES
1 *59:Y *61:A2 33.4929 
*END

*D_NET *29 0.000716112
*CONN
*I *61:B1 I *D sky130_fd_sc_hd__o21ai_1
*I *60:Y O *D sky130_fd_sc_hd__a21oi_1
*CAP
1 *61:B1 0.000168466
2 *60:Y 0.000168466
3 *61:B1 *73:A 0.000133012
4 *61:B1 *36:8 0
5 *48:A2 *61:B1 0.000134719
6 *60:A2 *61:B1 0.000111448
7 *69:D *61:B1 0
*RES
1 *60:Y *61:B1 32.2429 
*END

*D_NET *30 0.00206803
*CONN
*I *65:C I *D sky130_fd_sc_hd__nand4_1
*I *64:A2 I *D sky130_fd_sc_hd__a31o_1
*I *62:Y O *D sky130_fd_sc_hd__o31ai_1
*CAP
1 *65:C 7.24316e-05
2 *64:A2 0
3 *62:Y 0.000245273
4 *30:12 0.000317704
5 *65:C *45:A 4.08637e-05
6 *65:C *64:B1 2.44318e-05
7 *65:C *65:A 0.000186662
8 *65:C *65:D 0.000183713
9 *65:C *31:14 0
10 *65:C *37:41 4.56437e-05
11 *30:12 *54:A1 0.000149289
12 *30:12 *55:A1 0.000373685
13 *30:12 *62:A1 2.51721e-05
14 *30:12 *31:14 0
15 *30:12 *37:30 0.000202842
16 *30:12 *37:41 1.02504e-05
17 *30:12 *41:14 3.9052e-05
18 *55:A3 *30:12 1.55885e-05
19 *62:B1 *30:12 3.93346e-05
20 *71:A *30:12 0
21 *21:8 *30:12 9.60939e-05
*RES
1 *62:Y *30:12 22.2821 
2 *30:12 *64:A2 13.8 
3 *30:12 *65:C 16.7107 
*END

*D_NET *31 0.0017571
*CONN
*I *64:A3 I *D sky130_fd_sc_hd__a31o_1
*I *65:D I *D sky130_fd_sc_hd__nand4_1
*I *63:Y O *D sky130_fd_sc_hd__nand2b_1
*CAP
1 *64:A3 0
2 *65:D 4.92989e-05
3 *63:Y 0.000297337
4 *31:14 0.000346636
5 *65:D *45:A 2.87584e-05
6 *65:D *64:B1 0.00010096
7 *65:D *66:A3 7.0108e-05
8 *31:14 *45:A 0.000186662
9 *31:14 *54:A1 8.41555e-06
10 *31:14 *63:B 0
11 *31:14 *66:A3 0.000173328
12 *31:14 *39:50 7.28341e-05
13 *31:14 *41:29 1.72894e-05
14 *45:B *31:14 7.6644e-05
15 *46:A *31:14 0
16 *65:C *65:D 0.000183713
17 *65:C *31:14 0
18 *71:A *31:14 0.000145114
19 *30:12 *31:14 0
*RES
1 *63:Y *31:14 26.1929 
2 *31:14 *65:D 11.4786 
3 *31:14 *64:A3 9.3 
*END

*D_NET *32 0.000498152
*CONN
*I *66:A2 I *D sky130_fd_sc_hd__a31o_1
*I *64:X O *D sky130_fd_sc_hd__a31o_1
*CAP
1 *66:A2 5.58922e-05
2 *64:X 5.58922e-05
3 *66:A2 *45:A 1.56e-05
4 *66:A2 *66:A3 0.0001399
5 *66:A1 *66:A2 2.53134e-05
6 *15:21 *66:A2 0.0001399
7 *15:36 *66:A2 6.56534e-05
*RES
1 *64:X *66:A2 20.7964 
*END

*D_NET *33 0.00109583
*CONN
*I *66:A3 I *D sky130_fd_sc_hd__a31o_1
*I *65:Y O *D sky130_fd_sc_hd__nand4_1
*CAP
1 *66:A3 0.000118046
2 *65:Y 0.000118046
3 *66:A3 *45:A 1.98839e-05
4 *66:A3 *64:B1 0.000144773
5 *66:A3 *65:B 0
6 *65:D *66:A3 7.0108e-05
7 *66:A2 *66:A3 0.0001399
8 *15:21 *66:A3 0.000311747
9 *31:14 *66:A3 0.000173328
*RES
1 *65:Y *66:A3 23.7964 
*END

*D_NET *34 0.00153477
*CONN
*I *73:A I *D sky130_fd_sc_hd__clkbuf_16
*I *72:A I *D sky130_fd_sc_hd__clkbuf_16
*I *71:X O *D sky130_fd_sc_hd__clkbuf_16
*CAP
1 *73:A 6.54245e-05
2 *72:A 0.000254707
3 *71:X 0
4 *34:6 0.000320131
5 *72:A *46:B 7.77652e-05
6 *72:A *63:B 7.2444e-05
7 *72:A *67:CLK 0.000108118
8 *72:A *39:50 9.12225e-05
9 *73:A *67:CLK 0.000276809
10 *48:A2 *73:A 5.4115e-05
11 *60:B1 *72:A 2.71337e-05
12 *61:A2 *72:A 4.20528e-05
13 *61:A2 *73:A 1.18358e-05
14 *61:B1 *73:A 0.000133012
15 *18:15 *72:A 0
*RES
1 *71:X *34:6 13.8 
2 *34:6 *72:A 20.6036 
3 *34:6 *73:A 17.2643 
*END

*D_NET *35 0.00242221
*CONN
*I *70:CLK I *D sky130_fd_sc_hd__dfxtp_1
*I *68:CLK I *D sky130_fd_sc_hd__dfxtp_1
*I *72:X O *D sky130_fd_sc_hd__clkbuf_16
*CAP
1 *70:CLK 0.000549797
2 *68:CLK 0.000267136
3 *72:X 0
4 *35:6 0.000816934
5 *68:CLK *51:A 1.41029e-05
6 *68:CLK *55:A1 0
7 *68:CLK *39:6 0
8 *68:CLK *39:10 0
9 *68:CLK *41:14 0
10 *70:CLK *45:A 5.5658e-06
11 *70:CLK *65:A 3.13838e-05
12 *70:CLK *37:30 0
13 *70:CLK *37:41 0
14 *70:CLK *43:16 0.000115373
15 *51:B *68:CLK 6.84519e-05
16 *55:A2 *68:CLK 8.71669e-05
17 *55:A2 *70:CLK 0.000202678
18 *68:D *68:CLK 0.00013361
19 *70:D *70:CLK 0.00013001
20 *74:A *70:CLK 0
21 *21:8 *68:CLK 0
*RES
1 *72:X *35:6 13.8 
2 *35:6 *68:CLK 20.0679 
3 *35:6 *70:CLK 26.5679 
*END

*D_NET *36 0.00173696
*CONN
*I *69:CLK I *D sky130_fd_sc_hd__dfxtp_1
*I *67:CLK I *D sky130_fd_sc_hd__dfxtp_1
*I *73:X O *D sky130_fd_sc_hd__clkbuf_16
*CAP
1 *69:CLK 3.58665e-05
2 *67:CLK 0.000127277
3 *73:X 0.000288128
4 *36:8 0.000451272
5 *48:A2 *67:CLK 2.00751e-05
6 *48:A2 *69:CLK 4.47843e-05
7 *61:A2 *67:CLK 0
8 *61:B1 *36:8 0
9 *67:D *67:CLK 0.000160205
10 *67:D *69:CLK 1.00375e-05
11 *69:D *67:CLK 3.17148e-05
12 *69:D *69:CLK 0.000108118
13 *69:D *36:8 7.45557e-05
14 *72:A *67:CLK 0.000108118
15 *73:A *67:CLK 0.000276809
*RES
1 *73:X *36:8 19.2643 
2 *36:8 *67:CLK 19.3893 
3 *36:8 *69:CLK 15.4429 
*END

*D_NET *37 0.00441675
*CONN
*I *45:A I *D sky130_fd_sc_hd__nand2_1
*I *65:A I *D sky130_fd_sc_hd__nand4_1
*I *64:A1 I *D sky130_fd_sc_hd__a31o_1
*I *55:A1 I *D sky130_fd_sc_hd__a31o_1
*I *47:A I *D sky130_fd_sc_hd__nor2_1
*I *74:X O *D sky130_fd_sc_hd__buf_1
*CAP
1 *45:A 0.000268489
2 *65:A 0.000126889
3 *64:A1 0
4 *55:A1 0.000126912
5 *47:A 0
6 *74:X 0.00013699
7 *37:41 0.000438865
8 *37:30 0.00014402
9 *37:17 0.00027473
10 *37:8 0.000184276
11 *55:A1 *41:14 1.18064e-05
12 *65:A *44:A 0
13 *65:A *64:B1 1.21289e-05
14 *65:A *65:B 2.31702e-05
15 *65:A *43:16 6.54858e-05
16 *37:8 *44:A 0
17 *37:8 *47:B 0.000309405
18 *45:B *45:A 0.000157906
19 *54:B1 *37:8 0
20 *55:A2 *55:A1 0
21 *55:A2 *37:30 0
22 *55:A3 *55:A1 8.07313e-05
23 *55:B1 *55:A1 0.000383474
24 *61:A1 *45:A 0
25 *65:C *45:A 4.08637e-05
26 *65:C *65:A 0.000186662
27 *65:C *37:41 4.56437e-05
28 *65:D *45:A 2.87584e-05
29 *66:A2 *45:A 1.56e-05
30 *66:A3 *45:A 1.98839e-05
31 *68:CLK *55:A1 0
32 *70:CLK *45:A 5.5658e-06
33 *70:CLK *65:A 3.13838e-05
34 *70:CLK *37:30 0
35 *70:CLK *37:41 0
36 *70:D *45:A 0.000123308
37 *15:6 *37:8 4.88515e-05
38 *15:21 *37:8 5.04705e-05
39 *15:21 *37:17 0
40 *16:6 *45:A 9.90367e-05
41 *18:8 *37:8 1.32552e-05
42 *18:8 *37:17 0.00014285
43 *21:8 *55:A1 4.58976e-05
44 *30:12 *55:A1 0.000373685
45 *30:12 *37:30 0.000202842
46 *30:12 *37:41 1.02504e-05
47 *31:14 *45:A 0.000186662
*RES
1 *74:X *37:8 13.7464 
2 *37:8 *47:A 9.3 
3 *37:8 *37:17 5.85714 
4 *37:17 *55:A1 20.1393 
5 *37:17 *37:30 2.55357 
6 *37:30 *64:A1 13.8 
7 *37:30 *37:41 5.53571 
8 *37:41 *65:A 13.1571 
9 *37:41 *45:A 26.3 
*END

*D_NET *38 0.00104782
*CONN
*I *44:A I *D sky130_fd_sc_hd__inv_2
*I *47:B I *D sky130_fd_sc_hd__nor2_1
*I *75:X O *D sky130_fd_sc_hd__buf_1
*CAP
1 *44:A 7.87322e-05
2 *47:B 0.000290476
3 *75:X 0
4 *38:4 0.000369209
5 *44:A *65:B 0
6 *44:A *43:8 0
7 *65:A *44:A 0
8 *37:8 *44:A 0
9 *37:8 *47:B 0.000309405
*RES
1 *75:X *38:4 9.3 
2 *38:4 *47:B 16.55 
3 *38:4 *44:A 10.8714 
*END

*D_NET *39 0.00371644
*CONN
*I *51:A I *D sky130_fd_sc_hd__or2_1
*I *46:B I *D sky130_fd_sc_hd__nor2_1
*I *63:A_N I *D sky130_fd_sc_hd__nand2b_1
*I *62:A1 I *D sky130_fd_sc_hd__o31ai_1
*I *52:A I *D sky130_fd_sc_hd__nand2_1
*I *76:X O *D sky130_fd_sc_hd__buf_1
*CAP
1 *51:A 0.000107306
2 *46:B 4.04992e-05
3 *63:A_N 1.30378e-05
4 *62:A1 4.38066e-05
5 *52:A 2.23854e-05
6 *76:X 2.95953e-05
7 *39:50 0.000300413
8 *39:23 0.000607313
9 *39:10 0.000560074
10 *39:6 0.000357959
11 *46:B *63:B 7.03295e-05
12 *62:A1 *62:A2 3.33174e-05
13 *39:23 *62:A2 9.24299e-05
14 *39:23 *41:14 6.75007e-05
15 *39:50 *54:A1 0.000133012
16 *39:50 *62:A2 4.46186e-06
17 *39:50 *63:B 6.1498e-05
18 *39:50 *40:57 0
19 *39:50 *41:14 5.57e-05
20 *39:50 *41:18 9.33978e-07
21 *39:50 *41:29 3.91393e-05
22 *51:B *39:23 0
23 *52:B *51:A 0
24 *52:B *39:10 0.000186669
25 *52:B *39:23 0
26 *53:B *39:10 3.18676e-05
27 *53:B *39:23 0.000102197
28 *62:B1 *62:A1 7.31797e-05
29 *68:CLK *51:A 1.41029e-05
30 *68:CLK *39:6 0
31 *68:CLK *39:10 0
32 *68:D *51:A 0.000132297
33 *68:D *39:10 0
34 *72:A *46:B 7.77652e-05
35 *72:A *39:50 9.12225e-05
36 *76:A *51:A 0.000122354
37 *18:15 *39:50 0
38 *20:12 *39:10 0
39 *21:8 *62:A1 0.000146067
40 *30:12 *62:A1 2.51721e-05
41 *31:14 *39:50 7.28341e-05
*RES
1 *76:X *39:6 9.83571 
2 *39:6 *39:10 4.96429 
3 *39:10 *52:A 9.72857 
4 *39:10 *39:23 10.9464 
5 *39:23 *62:A1 16.1393 
6 *39:23 *39:50 11.0357 
7 *39:50 *63:A_N 9.72857 
8 *39:50 *46:B 11.0857 
9 *39:6 *51:A 22.0679 
*END

*D_NET *40 0.00533548
*CONN
*I *77:A I *D sky130_fd_sc_hd__buf_1
*I *57:A I *D sky130_fd_sc_hd__nand3_1
*I *48:A1 I *D sky130_fd_sc_hd__a21oi_1
*I *49:A1 I *D sky130_fd_sc_hd__o21ai_1
*I *50:A I *D sky130_fd_sc_hd__xor2_1
*I *62:A2 I *D sky130_fd_sc_hd__o31ai_1
*I *56:A1 I *D sky130_fd_sc_hd__a21o_1
*I *67:Q O *D sky130_fd_sc_hd__dfxtp_1
*CAP
1 *77:A 0.000148547
2 *57:A 5.54636e-05
3 *48:A1 5.97101e-05
4 *49:A1 0.000111748
5 *50:A 0
6 *62:A2 0.000121565
7 *56:A1 9.74142e-06
8 *67:Q 0
9 *40:57 0.000464466
10 *40:53 0.000437709
11 *40:31 0.000301519
12 *40:25 0.000608313
13 *40:12 0.00056848
14 *40:6 0.000368163
15 *56:A1 *79:A 4.01768e-05
16 *62:A2 *50:B 5.71472e-05
17 *77:A *78:A 0
18 *77:A *42:16 3.16978e-05
19 *40:12 *56:A2 0
20 *40:12 *78:A 0
21 *40:12 *79:A 7.15846e-05
22 *40:25 *57:C 8.35655e-05
23 *40:25 *79:A 0
24 *40:53 *57:B 0
25 *40:57 *57:B 0
26 *40:57 *63:B 0
27 counter[1] *77:A 0.00012022
28 counter[2] *40:12 1.6959e-05
29 *46:A *40:57 2.49484e-05
30 *48:A2 *48:A1 6.05161e-06
31 *48:A2 *40:57 7.48969e-05
32 *48:B1 *48:A1 5.52302e-05
33 *48:B1 *49:A1 5.33005e-05
34 *48:B1 *40:57 0.000153762
35 *53:B *62:A2 9.33907e-05
36 *53:B *40:31 0
37 *53:B *40:53 0
38 *55:A3 *62:A2 9.20581e-06
39 *55:A3 *40:31 5.39629e-06
40 *58:B *57:A 1.33343e-05
41 *58:B *40:25 3.01267e-05
42 *59:B *57:A 0.000144773
43 *61:A1 *48:A1 4.46231e-06
44 *61:A1 *49:A1 7.07155e-06
45 *61:A2 *40:57 0.000255169
46 *62:A1 *62:A2 3.33174e-05
47 *62:B1 *57:A 0.000144773
48 *62:B1 *62:A2 3.33174e-05
49 *62:B1 *40:25 5.38072e-05
50 *62:B1 *40:31 0
51 *66:B1 *49:A1 0
52 *67:D *48:A1 8.07397e-06
53 *70:D *49:A1 0
54 *16:6 *49:A1 1.40306e-05
55 *17:8 *40:57 0.000108111
56 *17:19 *40:57 5.41794e-05
57 *17:32 *40:57 0.000181085
58 *39:23 *62:A2 9.24299e-05
59 *39:50 *62:A2 4.46186e-06
60 *39:50 *40:57 0
*RES
1 *67:Q *40:6 13.8 
2 *40:6 *40:12 8.82143 
3 *40:12 *56:A1 10.2464 
4 *40:12 *40:25 12.6429 
5 *40:25 *40:31 7.82143 
6 *40:31 *62:A2 21.8268 
7 *40:31 *50:A 9.3 
8 *40:25 *40:53 1.64286 
9 *40:53 *40:57 13.7321 
10 *40:57 *49:A1 11.3893 
11 *40:57 *48:A1 10.6571 
12 *40:53 *57:A 15.6929 
13 *40:6 *77:A 17.6214 
*END

*D_NET *41 0.0042626
*CONN
*I *50:B I *D sky130_fd_sc_hd__xor2_1
*I *54:A1 I *D sky130_fd_sc_hd__a21o_1
*I *78:A I *D sky130_fd_sc_hd__buf_1
*I *56:A2 I *D sky130_fd_sc_hd__a21o_1
*I *57:B I *D sky130_fd_sc_hd__nand3_1
*I *62:A3 I *D sky130_fd_sc_hd__o31ai_1
*I *68:Q O *D sky130_fd_sc_hd__dfxtp_1
*CAP
1 *50:B 0.000123139
2 *54:A1 6.6924e-05
3 *78:A 0.000237001
4 *56:A2 3.83138e-05
5 *57:B 9.80495e-05
6 *62:A3 0
7 *68:Q 0
8 *41:46 0.000393504
9 *41:29 0.000396466
10 *41:18 0.000208612
11 *41:14 0.00025744
12 *41:4 0.00028527
13 *56:A2 *42:24 1.87955e-05
14 *78:A *42:16 7.77751e-05
15 *78:A *42:20 7.99632e-05
16 *78:A *42:24 3.69865e-05
17 *41:29 *63:B 0.000150202
18 *41:46 *57:C 4.16929e-05
19 *41:46 *63:B 9.03141e-05
20 *41:46 *79:A 0.000140933
21 counter[1] *78:A 0
22 *51:B *41:14 0
23 *53:B *50:B 1.42587e-05
24 *55:A1 *41:14 1.18064e-05
25 *55:A3 *50:B 2.61613e-05
26 *55:A3 *41:14 1.92905e-05
27 *58:A *41:46 3.18676e-05
28 *59:A *41:29 5.23057e-05
29 *59:B *41:29 0.000251951
30 *59:B *41:46 0.000130419
31 *62:A2 *50:B 5.71472e-05
32 *62:B1 *41:29 7.48301e-06
33 *67:D *78:A 0
34 *68:CLK *41:14 0
35 *71:A *54:A1 6.57509e-05
36 *77:A *78:A 0
37 *20:12 *50:B 9.99644e-06
38 *20:12 *41:14 1.72894e-05
39 *21:8 *41:18 5.33005e-05
40 *21:8 *41:29 0.000261858
41 *30:12 *54:A1 0.000149289
42 *30:12 *41:14 3.9052e-05
43 *31:14 *54:A1 8.41555e-06
44 *31:14 *41:29 1.72894e-05
45 *39:23 *41:14 6.75007e-05
46 *39:50 *54:A1 0.000133012
47 *39:50 *41:14 5.57e-05
48 *39:50 *41:18 9.33978e-07
49 *39:50 *41:29 3.91393e-05
50 *40:12 *56:A2 0
51 *40:12 *78:A 0
52 *40:53 *57:B 0
53 *40:57 *57:B 0
*RES
1 *68:Q *41:4 9.3 
2 *41:4 *41:14 8.25 
3 *41:14 *41:18 5.03571 
4 *41:18 *62:A3 9.3 
5 *41:18 *41:29 7.25 
6 *41:29 *57:B 19.5679 
7 *41:29 *41:46 8.73214 
8 *41:46 *56:A2 14.5321 
9 *41:46 *78:A 19.5321 
10 *41:14 *54:A1 17.2643 
11 *41:4 *50:B 12.2286 
*END

*D_NET *42 0.00368902
*CONN
*I *60:A1 I *D sky130_fd_sc_hd__a21oi_1
*I *63:B I *D sky130_fd_sc_hd__nand2b_1
*I *79:A I *D sky130_fd_sc_hd__buf_1
*I *56:B1 I *D sky130_fd_sc_hd__a21o_1
*I *57:C I *D sky130_fd_sc_hd__nand3_1
*I *69:Q O *D sky130_fd_sc_hd__dfxtp_1
*CAP
1 *60:A1 0
2 *63:B 0.0003341
3 *79:A 0.000188507
4 *56:B1 0
5 *57:C 7.63322e-05
6 *69:Q 0.000405628
7 *42:24 0.00037345
8 *42:20 0.000541305
9 *42:16 0.000504221
10 counter[0] *42:16 9.15186e-06
11 counter[1] *42:16 9.25014e-06
12 *46:A *63:B 4.46186e-06
13 *46:B *63:B 7.03295e-05
14 *56:A1 *79:A 4.01768e-05
15 *56:A2 *42:24 1.87955e-05
16 *58:A *57:C 5.71472e-05
17 *58:B *57:C 5.71472e-05
18 *59:B *57:C 2.44318e-05
19 *60:A2 *63:B 0
20 *60:A2 *42:16 2.89114e-05
21 *60:B1 *63:B 0
22 *67:D *63:B 7.01199e-06
23 *67:D *42:20 0
24 *72:A *63:B 7.2444e-05
25 *77:A *42:16 3.16978e-05
26 *78:A *42:16 7.77751e-05
27 *78:A *42:20 7.99632e-05
28 *78:A *42:24 3.69865e-05
29 *31:14 *63:B 0
30 *39:50 *63:B 6.1498e-05
31 *40:12 *79:A 7.15846e-05
32 *40:25 *57:C 8.35655e-05
33 *40:25 *79:A 0
34 *40:57 *63:B 0
35 *41:29 *63:B 0.000150202
36 *41:46 *57:C 4.16929e-05
37 *41:46 *63:B 9.03141e-05
38 *41:46 *79:A 0.000140933
*RES
1 *69:Q *42:16 26.9429 
2 *42:16 *42:20 7.05357 
3 *42:20 *42:24 6.44643 
4 *42:24 *57:C 12.3179 
5 *42:24 *56:B1 9.3 
6 *42:24 *79:A 13.9786 
7 *42:20 *63:B 31.0723 
8 *42:16 *60:A1 9.3 
*END

*D_NET *43 0.00150659
*CONN
*I *80:A I *D sky130_fd_sc_hd__buf_1
*I *64:B1 I *D sky130_fd_sc_hd__a31o_1
*I *65:B I *D sky130_fd_sc_hd__nand4_1
*I *70:Q O *D sky130_fd_sc_hd__dfxtp_1
*CAP
1 *80:A 0.000125583
2 *64:B1 2.30899e-05
3 *65:B 2.17952e-05
4 *70:Q 2.92561e-05
5 *43:16 0.000269844
6 *43:8 0.000379798
7 counter[3] *80:A 6.27272e-06
8 *44:A *65:B 0
9 *44:A *43:8 0
10 *65:A *64:B1 1.21289e-05
11 *65:A *65:B 2.31702e-05
12 *65:A *43:16 6.54858e-05
13 *65:C *64:B1 2.44318e-05
14 *65:D *64:B1 0.00010096
15 *66:A3 *64:B1 0.000144773
16 *66:A3 *65:B 0
17 *70:CLK *43:16 0.000115373
18 *75:A *43:16 4.54941e-05
19 *15:6 *43:16 7.32272e-05
20 *15:21 *64:B1 1.69961e-05
21 *15:21 *43:16 2.89114e-05
*RES
1 *70:Q *43:8 14.3357 
2 *43:8 *43:16 10.2679 
3 *43:16 *65:B 9.94286 
4 *43:16 *64:B1 11.0679 
5 *43:8 *80:A 16.2821 
*END
